/*---------------------------------------------------------------------------*\
  =========                 |
  \\      /  F ield         | OpenFOAM: The Open Source CFD Toolbox
   \\    /   O peration     | Website:  https://openfoam.org
    \\  /    A nd           | Version:  dev
     \\/     M anipulation  |
\*---------------------------------------------------------------------------*/
Build  : dev-526b3840c7d8
Exec   : simpleFoam -parallel
Date   : Feb 06 2022
Time   : 11:16:07
Host   : "Sh-Ruan-matebook"
PID    : 576
I/O    : uncollated
Case   : /mnt/d/Learning/OpenFOAMsourcecode/BasicOpenFOAMProgrammingTutorials/OFtutorial08_customBC/testCase
nProcs : 4
Slaves : 
3
(
"Sh-Ruan-matebook.577"
"Sh-Ruan-matebook.578"
"Sh-Ruan-matebook.579"
)

Pstream initialised with:
    floatTransfer      : 0
    nProcsSimpleSum    : 0
    commsType          : nonBlocking
    polling iterations : 0
sigFpe : Enabling floating point exception trapping (FOAM_SIGFPE).
fileModificationChecking : Monitoring run-time modified files using timeStampMaster (fileModificationSkew 10)
allowSystemOperations : Allowing user-supplied system call operations

// * * * * * * * * * * * * * * * * * * * * * * * * * * * * * * * * * * * * * //
Create time

Create mesh for time = 0


SIMPLE: Convergence criteria found
        p: tolerance 1e-07
        U: tolerance 1e-07
        "(k|omega)": tolerance 1e-07

Reading field p

Reading field U

Reading/calculating face flux field phi

Selecting viscosity model Newtonian
Selecting turbulence model type RAS
Selecting RAS turbulence model kOmegaSST
Selecting patchDistMethod meshWave
bounding k, min: 0 max: 0.06 average: 0.06
RAS
{
    RASModel        kOmegaSST;
    turbulence      on;
    printCoeffs     on;
    alphaK1         0.85;
    alphaK2         1;
    alphaOmega1     0.5;
    alphaOmega2     0.856;
    gamma1          0.555556;
    gamma2          0.44;
    beta1           0.075;
    beta2           0.0828;
    betaStar        0.09;
    a1              0.31;
    b1              1;
    c1              10;
    F3              false;
}

No MRF models present

No fvModels present
No fvConstraints present

Starting time loop

Time = 1s

DILUPBiCG:  Solving for Ux, Initial residual = 0.000330213, Final residual = 8.7907e-06, No Iterations 1
DILUPBiCG:  Solving for Uy, Initial residual = 0.00666439, Final residual = 0.000260259, No Iterations 1
DILUPBiCG:  Solving for Uz, Initial residual = 0.00732066, Final residual = 0.000281522, No Iterations 1
GAMG:  Solving for p, Initial residual = 1, Final residual = 0.092648, No Iterations 36
time step continuity errors : sum local = 0.142926, global = -0.00688239, cumulative = -0.00688239
DILUPBiCG:  Solving for omega, Initial residual = 0.169882, Final residual = 8.32233e-05, No Iterations 1
DILUPBiCG:  Solving for k, Initial residual = 1, Final residual = 0.00382256, No Iterations 1
bounding k, min: 0 max: 0.0602663 average: 0.0599432
ExecutionTime = 0.44 s  ClockTime = 1 s

Time = 2s

DILUPBiCG:  Solving for Ux, Initial residual = 0.775908, Final residual = 0.0309731, No Iterations 1
DILUPBiCG:  Solving for Uy, Initial residual = 0.965481, Final residual = 0.0416163, No Iterations 1
DILUPBiCG:  Solving for Uz, Initial residual = 0.964608, Final residual = 0.0412261, No Iterations 1
GAMG:  Solving for p, Initial residual = 0.453951, Final residual = 0.0452408, No Iterations 38
time step continuity errors : sum local = 4.85468, global = 0.10762, cumulative = 0.100738
DILUPBiCG:  Solving for omega, Initial residual = 0.0061496, Final residual = 3.54403e-05, No Iterations 1
DILUPBiCG:  Solving for k, Initial residual = 0.882367, Final residual = 0.00344159, No Iterations 1
bounding k, min: 0 max: 0.270667 average: 0.0655139
ExecutionTime = 0.66 s  ClockTime = 1 s

Time = 3s

DILUPBiCG:  Solving for Ux, Initial residual = 0.397733, Final residual = 0.0216125, No Iterations 1
DILUPBiCG:  Solving for Uy, Initial residual = 0.66628, Final residual = 0.0402587, No Iterations 1
DILUPBiCG:  Solving for Uz, Initial residual = 0.665521, Final residual = 0.0404144, No Iterations 1
GAMG:  Solving for p, Initial residual = 0.748056, Final residual = 0.0661852, No Iterations 38
time step continuity errors : sum local = 12.4734, global = 0.433141, cumulative = 0.533878
DILUPBiCG:  Solving for omega, Initial residual = 0.0219783, Final residual = 0.000129889, No Iterations 1
DILUPBiCG:  Solving for k, Initial residual = 0.165065, Final residual = 0.00325502, No Iterations 1
bounding k, min: 0 max: 0.253227 average: 0.0706175
ExecutionTime = 0.89 s  ClockTime = 2 s

Time = 4s

DILUPBiCG:  Solving for Ux, Initial residual = 0.0656611, Final residual = 0.00530234, No Iterations 1
DILUPBiCG:  Solving for Uy, Initial residual = 0.318072, Final residual = 0.0233197, No Iterations 1
DILUPBiCG:  Solving for Uz, Initial residual = 0.297134, Final residual = 0.022131, No Iterations 1
GAMG:  Solving for p, Initial residual = 0.696902, Final residual = 0.0685975, No Iterations 46
time step continuity errors : sum local = 9.34521, global = 0.492302, cumulative = 1.02618
DILUPBiCG:  Solving for omega, Initial residual = 0.012977, Final residual = 0.000235946, No Iterations 1
DILUPBiCG:  Solving for k, Initial residual = 0.310892, Final residual = 0.0225718, No Iterations 1
bounding k, min: 0 max: 0.873509 average: 0.0879381
ExecutionTime = 1.18 s  ClockTime = 2 s

Time = 5s

DILUPBiCG:  Solving for Ux, Initial residual = 0.250825, Final residual = 0.0225327, No Iterations 1
DILUPBiCG:  Solving for Uy, Initial residual = 0.416348, Final residual = 0.0329585, No Iterations 1
DILUPBiCG:  Solving for Uz, Initial residual = 0.433433, Final residual = 0.033829, No Iterations 1
GAMG:  Solving for p, Initial residual = 0.311769, Final residual = 0.0311097, No Iterations 19
time step continuity errors : sum local = 8.69419, global = -0.167109, cumulative = 0.859072
DILUPBiCG:  Solving for omega, Initial residual = 0.0216926, Final residual = 0.0010115, No Iterations 1
DILUPBiCG:  Solving for k, Initial residual = 0.369035, Final residual = 0.0183404, No Iterations 1
bounding k, min: 0 max: 2.06413 average: 0.113626
ExecutionTime = 1.32 s  ClockTime = 2 s

Time = 6s

DILUPBiCG:  Solving for Ux, Initial residual = 0.392378, Final residual = 0.0284013, No Iterations 1
DILUPBiCG:  Solving for Uy, Initial residual = 0.321373, Final residual = 0.0266854, No Iterations 1
DILUPBiCG:  Solving for Uz, Initial residual = 0.321576, Final residual = 0.0262195, No Iterations 1
GAMG:  Solving for p, Initial residual = 0.261553, Final residual = 0.0250672, No Iterations 46
time step continuity errors : sum local = 7.88359, global = 0.873393, cumulative = 1.73246
DILUPBiCG:  Solving for omega, Initial residual = 0.0281426, Final residual = 0.000732626, No Iterations 1
DILUPBiCG:  Solving for k, Initial residual = 0.313967, Final residual = 0.0136632, No Iterations 1
bounding k, min: 0 max: 3.66649 average: 0.148701
ExecutionTime = 1.65 s  ClockTime = 2 s

Time = 7s

DILUPBiCG:  Solving for Ux, Initial residual = 0.143037, Final residual = 0.0117445, No Iterations 1
DILUPBiCG:  Solving for Uy, Initial residual = 0.230502, Final residual = 0.0168542, No Iterations 1
DILUPBiCG:  Solving for Uz, Initial residual = 0.2225, Final residual = 0.0168709, No Iterations 1
GAMG:  Solving for p, Initial residual = 0.339088, Final residual = 0.0384787, No Iterations 50
time step continuity errors : sum local = 8.02302, global = 1.11696, cumulative = 2.84942
DILUPBiCG:  Solving for omega, Initial residual = 0.0180033, Final residual = 0.000402197, No Iterations 1
DILUPBiCG:  Solving for k, Initial residual = 0.2755, Final residual = 0.0129427, No Iterations 1
bounding k, min: 0 max: 6.81674 average: 0.196085
ExecutionTime = 1.94 s  ClockTime = 3 s

Time = 8s

DILUPBiCG:  Solving for Ux, Initial residual = 0.113817, Final residual = 0.00903196, No Iterations 1
DILUPBiCG:  Solving for Uy, Initial residual = 0.178479, Final residual = 0.0119139, No Iterations 1
DILUPBiCG:  Solving for Uz, Initial residual = 0.184386, Final residual = 0.012382, No Iterations 1
GAMG:  Solving for p, Initial residual = 0.368142, Final residual = 0.0345627, No Iterations 37
time step continuity errors : sum local = 4.8529, global = 0.175272, cumulative = 3.0247
DILUPBiCG:  Solving for omega, Initial residual = 0.0128886, Final residual = 0.000273442, No Iterations 1
DILUPBiCG:  Solving for k, Initial residual = 0.176171, Final residual = 0.00835097, No Iterations 1
bounding k, min: 0 max: 9.5676 average: 0.241502
ExecutionTime = 2.2 s  ClockTime = 3 s

Time = 9s

DILUPBiCG:  Solving for Ux, Initial residual = 0.211871, Final residual = 0.0116304, No Iterations 1
DILUPBiCG:  Solving for Uy, Initial residual = 0.198823, Final residual = 0.01317, No Iterations 1
DILUPBiCG:  Solving for Uz, Initial residual = 0.207042, Final residual = 0.0134391, No Iterations 1
GAMG:  Solving for p, Initial residual = 0.223494, Final residual = 0.0202452, No Iterations 24
time step continuity errors : sum local = 3.7407, global = -0.382717, cumulative = 2.64198
DILUPBiCG:  Solving for omega, Initial residual = 0.00980699, Final residual = 0.000207199, No Iterations 1
DILUPBiCG:  Solving for k, Initial residual = 0.11228, Final residual = 0.00505052, No Iterations 1
bounding k, min: 0 max: 10.6191 average: 0.2821
ExecutionTime = 2.4 s  ClockTime = 3 s

Time = 10s

DILUPBiCG:  Solving for Ux, Initial residual = 0.179264, Final residual = 0.00992268, No Iterations 1
DILUPBiCG:  Solving for Uy, Initial residual = 0.190452, Final residual = 0.0124566, No Iterations 1
DILUPBiCG:  Solving for Uz, Initial residual = 0.198917, Final residual = 0.012751, No Iterations 1
GAMG:  Solving for p, Initial residual = 0.292472, Final residual = 0.030549, No Iterations 50
time step continuity errors : sum local = 3.91551, global = -0.544714, cumulative = 2.09727
DILUPBiCG:  Solving for omega, Initial residual = 0.00746421, Final residual = 0.000174827, No Iterations 1
DILUPBiCG:  Solving for k, Initial residual = 0.0839784, Final residual = 0.00331856, No Iterations 1
bounding k, min: 0 max: 10.9371 average: 0.320699
ExecutionTime = 2.76 s  ClockTime = 3 s

Time = 11s

DILUPBiCG:  Solving for Ux, Initial residual = 0.0786874, Final residual = 0.00586321, No Iterations 1
DILUPBiCG:  Solving for Uy, Initial residual = 0.143311, Final residual = 0.00893101, No Iterations 1
DILUPBiCG:  Solving for Uz, Initial residual = 0.154738, Final residual = 0.0095181, No Iterations 1
GAMG:  Solving for p, Initial residual = 0.536591, Final residual = 0.0506548, No Iterations 47
time step continuity errors : sum local = 2.75897, global = -0.406255, cumulative = 1.69101
DILUPBiCG:  Solving for omega, Initial residual = 0.00540399, Final residual = 0.000149792, No Iterations 1
DILUPBiCG:  Solving for k, Initial residual = 0.0724874, Final residual = 0.00268672, No Iterations 1
bounding k, min: 0 max: 11.0934 average: 0.360504
ExecutionTime = 3.08 s  ClockTime = 4 s

Time = 12s

DILUPBiCG:  Solving for Ux, Initial residual = 0.135309, Final residual = 0.00649368, No Iterations 1
DILUPBiCG:  Solving for Uy, Initial residual = 0.111224, Final residual = 0.00660232, No Iterations 1
DILUPBiCG:  Solving for Uz, Initial residual = 0.123455, Final residual = 0.00745422, No Iterations 1
GAMG:  Solving for p, Initial residual = 0.222729, Final residual = 0.0209106, No Iterations 20
time step continuity errors : sum local = 2.01534, global = 0.151797, cumulative = 1.84281
DILUPBiCG:  Solving for omega, Initial residual = 0.00555265, Final residual = 0.000149632, No Iterations 1
DILUPBiCG:  Solving for k, Initial residual = 0.0662148, Final residual = 0.00241043, No Iterations 1
bounding k, min: 0 max: 11.2596 average: 0.402876
ExecutionTime = 3.22 s  ClockTime = 4 s

Time = 13s

DILUPBiCG:  Solving for Ux, Initial residual = 0.109082, Final residual = 0.00499874, No Iterations 1
DILUPBiCG:  Solving for Uy, Initial residual = 0.0964076, Final residual = 0.00568691, No Iterations 1
DILUPBiCG:  Solving for Uz, Initial residual = 0.0979229, Final residual = 0.00561194, No Iterations 1
GAMG:  Solving for p, Initial residual = 0.205077, Final residual = 0.0188944, No Iterations 40
time step continuity errors : sum local = 1.66783, global = -0.0308291, cumulative = 1.81198
DILUPBiCG:  Solving for omega, Initial residual = 0.00488893, Final residual = 0.000140565, No Iterations 1
DILUPBiCG:  Solving for k, Initial residual = 0.0565754, Final residual = 0.00206265, No Iterations 1
bounding k, min: 0 max: 11.255 average: 0.4447
ExecutionTime = 3.47 s  ClockTime = 4 s

Time = 14s

DILUPBiCG:  Solving for Ux, Initial residual = 0.0461773, Final residual = 0.00276696, No Iterations 1
DILUPBiCG:  Solving for Uy, Initial residual = 0.0856083, Final residual = 0.00489884, No Iterations 1
DILUPBiCG:  Solving for Uz, Initial residual = 0.082032, Final residual = 0.00427998, No Iterations 1
GAMG:  Solving for p, Initial residual = 0.531631, Final residual = 0.0590838, No Iterations 50
time step continuity errors : sum local = 1.60548, global = -0.334234, cumulative = 1.47774
DILUPBiCG:  Solving for omega, Initial residual = 0.00402387, Final residual = 0.000124073, No Iterations 1
DILUPBiCG:  Solving for k, Initial residual = 0.0469483, Final residual = 0.0017164, No Iterations 1
bounding k, min: 0 max: 11.148 average: 0.483096
ExecutionTime = 3.77 s  ClockTime = 5 s

Time = 15s

DILUPBiCG:  Solving for Ux, Initial residual = 0.0593048, Final residual = 0.00260301, No Iterations 1
DILUPBiCG:  Solving for Uy, Initial residual = 0.0719588, Final residual = 0.00436965, No Iterations 1
DILUPBiCG:  Solving for Uz, Initial residual = 0.0717966, Final residual = 0.00397833, No Iterations 1
GAMG:  Solving for p, Initial residual = 0.217237, Final residual = 0.020216, No Iterations 22
time step continuity errors : sum local = 0.965664, global = -0.0857152, cumulative = 1.39203
DILUPBiCG:  Solving for omega, Initial residual = 0.00343362, Final residual = 0.000112249, No Iterations 1
DILUPBiCG:  Solving for k, Initial residual = 0.0398154, Final residual = 0.00148508, No Iterations 1
bounding k, min: 0 max: 10.9608 average: 0.517586
ExecutionTime = 3.95 s  ClockTime = 5 s

Time = 16s

DILUPBiCG:  Solving for Ux, Initial residual = 0.0627021, Final residual = 0.00267691, No Iterations 1
DILUPBiCG:  Solving for Uy, Initial residual = 0.057969, Final residual = 0.00344323, No Iterations 1
DILUPBiCG:  Solving for Uz, Initial residual = 0.0605761, Final residual = 0.00335331, No Iterations 1
GAMG:  Solving for p, Initial residual = 0.194552, Final residual = 0.0179089, No Iterations 36
time step continuity errors : sum local = 0.79457, global = 0.00891251, cumulative = 1.40094
DILUPBiCG:  Solving for omega, Initial residual = 0.00309467, Final residual = 0.00010856, No Iterations 1
DILUPBiCG:  Solving for k, Initial residual = 0.0335699, Final residual = 0.00127586, No Iterations 1
bounding k, min: 0 max: 10.7176 average: 0.548095
ExecutionTime = 4.22 s  ClockTime = 5 s

Time = 17s

DILUPBiCG:  Solving for Ux, Initial residual = 0.0397798, Final residual = 0.00196237, No Iterations 1
DILUPBiCG:  Solving for Uy, Initial residual = 0.0523727, Final residual = 0.00257761, No Iterations 1
DILUPBiCG:  Solving for Uz, Initial residual = 0.0547525, Final residual = 0.00269382, No Iterations 1
GAMG:  Solving for p, Initial residual = 0.341262, Final residual = 0.0488351, No Iterations 50
time step continuity errors : sum local = 0.993561, global = 0.166694, cumulative = 1.56764
DILUPBiCG:  Solving for omega, Initial residual = 0.00264807, Final residual = 9.80372e-05, No Iterations 1
DILUPBiCG:  Solving for k, Initial residual = 0.0284405, Final residual = 0.00110655, No Iterations 1
bounding k, min: 0 max: 10.5017 average: 0.574768
ExecutionTime = 4.48 s  ClockTime = 5 s

Time = 18s

DILUPBiCG:  Solving for Ux, Initial residual = 0.0326892, Final residual = 0.00166125, No Iterations 1
DILUPBiCG:  Solving for Uy, Initial residual = 0.0445211, Final residual = 0.00203795, No Iterations 1
DILUPBiCG:  Solving for Uz, Initial residual = 0.0457658, Final residual = 0.00214241, No Iterations 1
GAMG:  Solving for p, Initial residual = 0.246425, Final residual = 0.0235132, No Iterations 47
time step continuity errors : sum local = 0.501614, global = -0.0330671, cumulative = 1.53457
DILUPBiCG:  Solving for omega, Initial residual = 0.00246215, Final residual = 9.57821e-05, No Iterations 1
DILUPBiCG:  Solving for k, Initial residual = 0.0250939, Final residual = 0.000996971, No Iterations 1
bounding k, min: 0 max: 10.3503 average: 0.598065
ExecutionTime = 4.76 s  ClockTime = 5 s

Time = 19s

DILUPBiCG:  Solving for Ux, Initial residual = 0.0370577, Final residual = 0.00162621, No Iterations 1
DILUPBiCG:  Solving for Uy, Initial residual = 0.0383705, Final residual = 0.00183622, No Iterations 1
DILUPBiCG:  Solving for Uz, Initial residual = 0.0380884, Final residual = 0.00181359, No Iterations 1
GAMG:  Solving for p, Initial residual = 0.158274, Final residual = 0.0154958, No Iterations 38
time step continuity errors : sum local = 0.408496, global = 0.0652866, cumulative = 1.59986
DILUPBiCG:  Solving for omega, Initial residual = 0.00240771, Final residual = 9.87605e-05, No Iterations 1
DILUPBiCG:  Solving for k, Initial residual = 0.0225821, Final residual = 0.000906971, No Iterations 1
bounding k, min: 0 max: 10.2567 average: 0.618461
ExecutionTime = 4.98 s  ClockTime = 6 s

Time = 20s

DILUPBiCG:  Solving for Ux, Initial residual = 0.0308316, Final residual = 0.00136527, No Iterations 1
DILUPBiCG:  Solving for Uy, Initial residual = 0.0393508, Final residual = 0.001802, No Iterations 1
DILUPBiCG:  Solving for Uz, Initial residual = 0.037417, Final residual = 0.00173338, No Iterations 1
GAMG:  Solving for p, Initial residual = 0.174496, Final residual = 0.031993, No Iterations 50
time step continuity errors : sum local = 0.650708, global = -0.0619593, cumulative = 1.5379
DILUPBiCG:  Solving for omega, Initial residual = 0.00219474, Final residual = 9.16766e-05, No Iterations 1
DILUPBiCG:  Solving for k, Initial residual = 0.0202382, Final residual = 0.000815899, No Iterations 1
bounding k, min: 0 max: 10.2367 average: 0.636213
ExecutionTime = 5.27 s  ClockTime = 6 s

Time = 21s

DILUPBiCG:  Solving for Ux, Initial residual = 0.0215796, Final residual = 0.000954566, No Iterations 1
DILUPBiCG:  Solving for Uy, Initial residual = 0.0363598, Final residual = 0.00167671, No Iterations 1
DILUPBiCG:  Solving for Uz, Initial residual = 0.0340141, Final residual = 0.00165764, No Iterations 1
GAMG:  Solving for p, Initial residual = 0.370572, Final residual = 0.0561015, No Iterations 50
time step continuity errors : sum local = 0.451573, global = -0.0623908, cumulative = 1.47551
DILUPBiCG:  Solving for omega, Initial residual = 0.00191168, Final residual = 7.89688e-05, No Iterations 1
DILUPBiCG:  Solving for k, Initial residual = 0.0181394, Final residual = 0.000732044, No Iterations 1
bounding k, min: 0 max: 10.2164 average: 0.651499
ExecutionTime = 5.55 s  ClockTime = 6 s

Time = 22s

DILUPBiCG:  Solving for Ux, Initial residual = 0.023945, Final residual = 0.000997161, No Iterations 1
DILUPBiCG:  Solving for Uy, Initial residual = 0.0313184, Final residual = 0.00152787, No Iterations 1
DILUPBiCG:  Solving for Uz, Initial residual = 0.0304372, Final residual = 0.00157463, No Iterations 1
GAMG:  Solving for p, Initial residual = 0.174622, Final residual = 0.0174299, No Iterations 24
time step continuity errors : sum local = 0.228868, global = -0.0179762, cumulative = 1.45753
DILUPBiCG:  Solving for omega, Initial residual = 0.00172747, Final residual = 7.17082e-05, No Iterations 1
DILUPBiCG:  Solving for k, Initial residual = 0.0164895, Final residual = 0.000664692, No Iterations 1
bounding k, min: 0 max: 10.2385 average: 0.664521
ExecutionTime = 5.77 s  ClockTime = 7 s

Time = 23s

DILUPBiCG:  Solving for Ux, Initial residual = 0.0244695, Final residual = 0.000993441, No Iterations 1
DILUPBiCG:  Solving for Uy, Initial residual = 0.0290273, Final residual = 0.00131109, No Iterations 1
DILUPBiCG:  Solving for Uz, Initial residual = 0.0286459, Final residual = 0.00137071, No Iterations 1
GAMG:  Solving for p, Initial residual = 0.158338, Final residual = 0.0155357, No Iterations 37
time step continuity errors : sum local = 0.193977, global = 0.00347529, cumulative = 1.461
DILUPBiCG:  Solving for omega, Initial residual = 0.00158963, Final residual = 6.65289e-05, No Iterations 1
DILUPBiCG:  Solving for k, Initial residual = 0.0151107, Final residual = 0.000606314, No Iterations 1
bounding k, min: 0 max: 10.2573 average: 0.67561
ExecutionTime = 6 s  ClockTime = 7 s

Time = 24s

DILUPBiCG:  Solving for Ux, Initial residual = 0.0190123, Final residual = 0.000778559, No Iterations 1
DILUPBiCG:  Solving for Uy, Initial residual = 0.0266602, Final residual = 0.00113958, No Iterations 1
DILUPBiCG:  Solving for Uz, Initial residual = 0.0263428, Final residual = 0.00117601, No Iterations 1
GAMG:  Solving for p, Initial residual = 0.276008, Final residual = 0.0395994, No Iterations 50
time step continuity errors : sum local = 0.243791, global = 0.0535359, cumulative = 1.51454
DILUPBiCG:  Solving for omega, Initial residual = 0.00144747, Final residual = 5.9633e-05, No Iterations 1
DILUPBiCG:  Solving for k, Initial residual = 0.0139702, Final residual = 0.000556353, No Iterations 1
bounding k, min: 0 max: 10.264 average: 0.685128
ExecutionTime = 6.26 s  ClockTime = 7 s

Time = 25s

DILUPBiCG:  Solving for Ux, Initial residual = 0.0175436, Final residual = 0.000716968, No Iterations 1
DILUPBiCG:  Solving for Uy, Initial residual = 0.0244557, Final residual = 0.00104413, No Iterations 1
DILUPBiCG:  Solving for Uz, Initial residual = 0.0243772, Final residual = 0.00103853, No Iterations 1
GAMG:  Solving for p, Initial residual = 0.164842, Final residual = 0.0164091, No Iterations 42
time step continuity errors : sum local = 0.12895, global = 0.0164858, cumulative = 1.53103
DILUPBiCG:  Solving for omega, Initial residual = 0.00140683, Final residual = 6.10576e-05, No Iterations 1
DILUPBiCG:  Solving for k, Initial residual = 0.0130464, Final residual = 0.00051405, No Iterations 1
bounding k, min: 0 max: 10.2602 average: 0.693346
ExecutionTime = 6.52 s  ClockTime = 7 s

Time = 26s

DILUPBiCG:  Solving for Ux, Initial residual = 0.0178669, Final residual = 0.000722696, No Iterations 1
DILUPBiCG:  Solving for Uy, Initial residual = 0.0238428, Final residual = 0.00100634, No Iterations 1
DILUPBiCG:  Solving for Uz, Initial residual = 0.0236291, Final residual = 0.000982286, No Iterations 1
GAMG:  Solving for p, Initial residual = 0.117342, Final residual = 0.0115984, No Iterations 40
time step continuity errors : sum local = 0.104121, global = 0.0176364, cumulative = 1.54866
DILUPBiCG:  Solving for omega, Initial residual = 0.00136228, Final residual = 6.08003e-05, No Iterations 1
DILUPBiCG:  Solving for k, Initial residual = 0.0122514, Final residual = 0.000477218, No Iterations 1
bounding k, min: 0 max: 10.2454 average: 0.700453
ExecutionTime = 6.78 s  ClockTime = 8 s

Time = 27s

DILUPBiCG:  Solving for Ux, Initial residual = 0.0167224, Final residual = 0.000669609, No Iterations 1
DILUPBiCG:  Solving for Uy, Initial residual = 0.0237613, Final residual = 0.000975949, No Iterations 1
DILUPBiCG:  Solving for Uz, Initial residual = 0.0230636, Final residual = 0.000947924, No Iterations 1
GAMG:  Solving for p, Initial residual = 0.127219, Final residual = 0.0140227, No Iterations 50
time step continuity errors : sum local = 0.10645, global = 0.00795557, cumulative = 1.55662
DILUPBiCG:  Solving for omega, Initial residual = 0.00128067, Final residual = 5.64261e-05, No Iterations 1
DILUPBiCG:  Solving for k, Initial residual = 0.0115238, Final residual = 0.000445106, No Iterations 1
bounding k, min: 0 max: 10.2195 average: 0.706565
ExecutionTime = 7.06 s  ClockTime = 8 s

Time = 28s

DILUPBiCG:  Solving for Ux, Initial residual = 0.0149979, Final residual = 0.000603703, No Iterations 1
DILUPBiCG:  Solving for Uy, Initial residual = 0.0220032, Final residual = 0.000914664, No Iterations 1
DILUPBiCG:  Solving for Uz, Initial residual = 0.0212001, Final residual = 0.000899329, No Iterations 1
GAMG:  Solving for p, Initial residual = 0.194398, Final residual = 0.0206265, No Iterations 50
time step continuity errors : sum local = 0.0865578, global = 0.00658457, cumulative = 1.5632
DILUPBiCG:  Solving for omega, Initial residual = 0.00117441, Final residual = 5.00794e-05, No Iterations 1
DILUPBiCG:  Solving for k, Initial residual = 0.0108471, Final residual = 0.000417965, No Iterations 1
bounding k, min: 0 max: 10.1933 average: 0.711751
ExecutionTime = 7.37 s  ClockTime = 8 s

Time = 29s

DILUPBiCG:  Solving for Ux, Initial residual = 0.015055, Final residual = 0.000600689, No Iterations 1
DILUPBiCG:  Solving for Uy, Initial residual = 0.0205934, Final residual = 0.00085936, No Iterations 1
DILUPBiCG:  Solving for Uz, Initial residual = 0.0198973, Final residual = 0.000867922, No Iterations 1
GAMG:  Solving for p, Initial residual = 0.149431, Final residual = 0.0144815, No Iterations 25
time step continuity errors : sum local = 0.0639634, global = -0.00382328, cumulative = 1.55938
DILUPBiCG:  Solving for omega, Initial residual = 0.00109794, Final residual = 4.65064e-05, No Iterations 1
DILUPBiCG:  Solving for k, Initial residual = 0.0102469, Final residual = 0.000396441, No Iterations 1
bounding k, min: 0 max: 10.1742 average: 0.716076
ExecutionTime = 7.57 s  ClockTime = 8 s

Time = 30s

DILUPBiCG:  Solving for Ux, Initial residual = 0.0147896, Final residual = 0.000584513, No Iterations 1
DILUPBiCG:  Solving for Uy, Initial residual = 0.0197876, Final residual = 0.000805546, No Iterations 1
DILUPBiCG:  Solving for Uz, Initial residual = 0.0191647, Final residual = 0.000815071, No Iterations 1
GAMG:  Solving for p, Initial residual = 0.136274, Final residual = 0.0185153, No Iterations 50
time step continuity errors : sum local = 0.0791518, global = 0.0139526, cumulative = 1.57333
DILUPBiCG:  Solving for omega, Initial residual = 0.00103787, Final residual = 4.39518e-05, No Iterations 1
DILUPBiCG:  Solving for k, Initial residual = 0.00971094, Final residual = 0.000379263, No Iterations 1
bounding k, min: 0 max: 10.2158 average: 0.719627
ExecutionTime = 7.83 s  ClockTime = 9 s

Time = 31s

DILUPBiCG:  Solving for Ux, Initial residual = 0.0138694, Final residual = 0.000544087, No Iterations 1
DILUPBiCG:  Solving for Uy, Initial residual = 0.019166, Final residual = 0.00076716, No Iterations 1
DILUPBiCG:  Solving for Uz, Initial residual = 0.0185883, Final residual = 0.000757763, No Iterations 1
GAMG:  Solving for p, Initial residual = 0.175021, Final residual = 0.024035, No Iterations 50
time step continuity errors : sum local = 0.0706157, global = 0.014554, cumulative = 1.58789
DILUPBiCG:  Solving for omega, Initial residual = 0.00099451, Final residual = 4.27055e-05, No Iterations 1
DILUPBiCG:  Solving for k, Initial residual = 0.00922868, Final residual = 0.000365897, No Iterations 1
bounding k, min: 0 max: 10.2413 average: 0.722501
ExecutionTime = 8.13 s  ClockTime = 9 s

Time = 32s

DILUPBiCG:  Solving for Ux, Initial residual = 0.0134082, Final residual = 0.000523222, No Iterations 1
DILUPBiCG:  Solving for Uy, Initial residual = 0.0183732, Final residual = 0.000733865, No Iterations 1
DILUPBiCG:  Solving for Uz, Initial residual = 0.0179466, Final residual = 0.000714861, No Iterations 1
GAMG:  Solving for p, Initial residual = 0.105439, Final residual = 0.0103876, No Iterations 34
time step continuity errors : sum local = 0.0419501, global = 0.00575732, cumulative = 1.59364
DILUPBiCG:  Solving for omega, Initial residual = 0.000967615, Final residual = 4.27229e-05, No Iterations 1
DILUPBiCG:  Solving for k, Initial residual = 0.00880598, Final residual = 0.000357022, No Iterations 1
bounding k, min: 0 max: 10.2519 average: 0.72478
ExecutionTime = 8.34 s  ClockTime = 9 s

Time = 33s

DILUPBiCG:  Solving for Ux, Initial residual = 0.0131563, Final residual = 0.000513194, No Iterations 1
DILUPBiCG:  Solving for Uy, Initial residual = 0.0179002, Final residual = 0.000711826, No Iterations 1
DILUPBiCG:  Solving for Uz, Initial residual = 0.0175458, Final residual = 0.000688545, No Iterations 1
GAMG:  Solving for p, Initial residual = 0.0861535, Final residual = 0.00775163, No Iterations 30
time step continuity errors : sum local = 0.0333493, global = 0.00245842, cumulative = 1.5961
DILUPBiCG:  Solving for omega, Initial residual = 0.000935397, Final residual = 4.16883e-05, No Iterations 1
DILUPBiCG:  Solving for k, Initial residual = 0.00843784, Final residual = 0.000353034, No Iterations 1
bounding k, min: 0 max: 10.2486 average: 0.726531
ExecutionTime = 8.54 s  ClockTime = 9 s

Time = 34s

DILUPBiCG:  Solving for Ux, Initial residual = 0.0127709, Final residual = 0.000499421, No Iterations 1
DILUPBiCG:  Solving for Uy, Initial residual = 0.0175726, Final residual = 0.000693817, No Iterations 1
DILUPBiCG:  Solving for Uz, Initial residual = 0.0171782, Final residual = 0.000667591, No Iterations 1
GAMG:  Solving for p, Initial residual = 0.0872476, Final residual = 0.00823496, No Iterations 46
time step continuity errors : sum local = 0.0325855, global = -0.00115444, cumulative = 1.59495
DILUPBiCG:  Solving for omega, Initial residual = 0.000893253, Final residual = 3.96054e-05, No Iterations 1
DILUPBiCG:  Solving for k, Initial residual = 0.00811427, Final residual = 0.000355017, No Iterations 1
bounding k, min: 0 max: 10.2324 average: 0.727804
ExecutionTime = 8.78 s  ClockTime = 10 s

Time = 35s

DILUPBiCG:  Solving for Ux, Initial residual = 0.0122827, Final residual = 0.000483483, No Iterations 1
DILUPBiCG:  Solving for Uy, Initial residual = 0.0169471, Final residual = 0.000667719, No Iterations 1
DILUPBiCG:  Solving for Uz, Initial residual = 0.016567, Final residual = 0.000645598, No Iterations 1
GAMG:  Solving for p, Initial residual = 0.104817, Final residual = 0.0101156, No Iterations 34
time step continuity errors : sum local = 0.0295449, global = -0.00185967, cumulative = 1.59309
DILUPBiCG:  Solving for omega, Initial residual = 0.000846033, Final residual = 3.71147e-05, No Iterations 1
DILUPBiCG:  Solving for k, Initial residual = 0.00782553, Final residual = 0.000362612, No Iterations 1
bounding k, min: 0 max: 10.2043 average: 0.728635
ExecutionTime = 9.01 s  ClockTime = 10 s

Time = 36s

DILUPBiCG:  Solving for Ux, Initial residual = 0.0120903, Final residual = 0.000476341, No Iterations 1
DILUPBiCG:  Solving for Uy, Initial residual = 0.0164032, Final residual = 0.000642206, No Iterations 1
DILUPBiCG:  Solving for Uz, Initial residual = 0.0160787, Final residual = 0.000625145, No Iterations 1
GAMG:  Solving for p, Initial residual = 0.118797, Final residual = 0.0117734, No Iterations 15
time step continuity errors : sum local = 0.0264187, global = -0.00201225, cumulative = 1.59108
DILUPBiCG:  Solving for omega, Initial residual = 0.000807866, Final residual = 3.54788e-05, No Iterations 1
DILUPBiCG:  Solving for k, Initial residual = 0.00756459, Final residual = 0.000375907, No Iterations 1
bounding k, min: 0 max: 10.1655 average: 0.729055
ExecutionTime = 9.17 s  ClockTime = 10 s

Time = 37s

DILUPBiCG:  Solving for Ux, Initial residual = 0.0118722, Final residual = 0.000467067, No Iterations 1
DILUPBiCG:  Solving for Uy, Initial residual = 0.0160992, Final residual = 0.000622729, No Iterations 1
DILUPBiCG:  Solving for Uz, Initial residual = 0.0157768, Final residual = 0.000606693, No Iterations 1
GAMG:  Solving for p, Initial residual = 0.116404, Final residual = 0.010931, No Iterations 37
time step continuity errors : sum local = 0.023215, global = -0.00183349, cumulative = 1.58924
DILUPBiCG:  Solving for omega, Initial residual = 0.000775054, Final residual = 3.42059e-05, No Iterations 1
DILUPBiCG:  Solving for k, Initial residual = 0.00732339, Final residual = 0.00039448, No Iterations 1
bounding k, min: 0 max: 10.1168 average: 0.729102
ExecutionTime = 9.39 s  ClockTime = 10 s

Time = 38s

DILUPBiCG:  Solving for Ux, Initial residual = 0.0115814, Final residual = 0.000454858, No Iterations 1
DILUPBiCG:  Solving for Uy, Initial residual = 0.0158659, Final residual = 0.000607781, No Iterations 1
DILUPBiCG:  Solving for Uz, Initial residual = 0.0155197, Final residual = 0.000588465, No Iterations 1
GAMG:  Solving for p, Initial residual = 0.10026, Final residual = 0.00989229, No Iterations 49
time step continuity errors : sum local = 0.0226241, global = 0.00404205, cumulative = 1.59328
DILUPBiCG:  Solving for omega, Initial residual = 0.000748335, Final residual = 3.33221e-05, No Iterations 1
DILUPBiCG:  Solving for k, Initial residual = 0.00710302, Final residual = 0.00041834, No Iterations 1
bounding k, min: 0 max: 10.0595 average: 0.728812
ExecutionTime = 9.7 s  ClockTime = 10 s

Time = 39s

DILUPBiCG:  Solving for Ux, Initial residual = 0.0113036, Final residual = 0.000443513, No Iterations 1
DILUPBiCG:  Solving for Uy, Initial residual = 0.015431, Final residual = 0.000589825, No Iterations 1
DILUPBiCG:  Solving for Uz, Initial residual = 0.0151649, Final residual = 0.000568463, No Iterations 1
GAMG:  Solving for p, Initial residual = 0.0803089, Final residual = 0.00794283, No Iterations 14
time step continuity errors : sum local = 0.0202038, global = 0.00364745, cumulative = 1.59693
DILUPBiCG:  Solving for omega, Initial residual = 0.000724693, Final residual = 3.25877e-05, No Iterations 1
DILUPBiCG:  Solving for k, Initial residual = 0.00690473, Final residual = 0.000447955, No Iterations 1
bounding k, min: 0 max: 9.9946 average: 0.728223
ExecutionTime = 9.83 s  ClockTime = 11 s

Time = 40s

DILUPBiCG:  Solving for Ux, Initial residual = 0.0110573, Final residual = 0.000434652, No Iterations 1
DILUPBiCG:  Solving for Uy, Initial residual = 0.0151007, Final residual = 0.00057573, No Iterations 1
DILUPBiCG:  Solving for Uz, Initial residual = 0.0148986, Final residual = 0.000553852, No Iterations 1
GAMG:  Solving for p, Initial residual = 0.0758065, Final residual = 0.00739265, No Iterations 22
time step continuity errors : sum local = 0.0185099, global = 0.00156686, cumulative = 1.5985
DILUPBiCG:  Solving for omega, Initial residual = 0.00069903, Final residual = 3.15674e-05, No Iterations 1
DILUPBiCG:  Solving for k, Initial residual = 0.0067287, Final residual = 0.000483013, No Iterations 1
bounding k, min: 0 max: 9.99157 average: 0.727366
ExecutionTime = 10.02 s  ClockTime = 11 s

Time = 41s

DILUPBiCG:  Solving for Ux, Initial residual = 0.0108249, Final residual = 0.000427053, No Iterations 1
DILUPBiCG:  Solving for Uy, Initial residual = 0.0147787, Final residual = 0.000562758, No Iterations 1
DILUPBiCG:  Solving for Uz, Initial residual = 0.0146117, Final residual = 0.000540658, No Iterations 1
GAMG:  Solving for p, Initial residual = 0.0731436, Final residual = 0.00703034, No Iterations 22
time step continuity errors : sum local = 0.0170875, global = -0.00020958, cumulative = 1.59829
DILUPBiCG:  Solving for omega, Initial residual = 0.000674, Final residual = 3.05061e-05, No Iterations 1
DILUPBiCG:  Solving for k, Initial residual = 0.00657534, Final residual = 0.000523828, No Iterations 1
bounding k, min: 0 max: 9.98879 average: 0.72627
ExecutionTime = 10.21 s  ClockTime = 11 s

Time = 42s

DILUPBiCG:  Solving for Ux, Initial residual = 0.010611, Final residual = 0.000420087, No Iterations 1
DILUPBiCG:  Solving for Uy, Initial residual = 0.0145258, Final residual = 0.000550155, No Iterations 1
DILUPBiCG:  Solving for Uz, Initial residual = 0.0143407, Final residual = 0.000528215, No Iterations 1
GAMG:  Solving for p, Initial residual = 0.0740107, Final residual = 0.00726592, No Iterations 28
time step continuity errors : sum local = 0.0163379, global = -0.000407769, cumulative = 1.59788
DILUPBiCG:  Solving for omega, Initial residual = 0.000649095, Final residual = 2.94157e-05, No Iterations 1
DILUPBiCG:  Solving for k, Initial residual = 0.00644082, Final residual = 0.000567743, No Iterations 1
bounding k, min: 0 max: 9.97738 average: 0.724955
ExecutionTime = 10.41 s  ClockTime = 11 s

Time = 43s

DILUPBiCG:  Solving for Ux, Initial residual = 0.0104057, Final residual = 0.000413143, No Iterations 1
DILUPBiCG:  Solving for Uy, Initial residual = 0.0141953, Final residual = 0.000535445, No Iterations 1
DILUPBiCG:  Solving for Uz, Initial residual = 0.0140238, Final residual = 0.000514737, No Iterations 1
GAMG:  Solving for p, Initial residual = 0.076253, Final residual = 0.00726822, No Iterations 19
time step continuity errors : sum local = 0.0147008, global = -0.00171281, cumulative = 1.59617
DILUPBiCG:  Solving for omega, Initial residual = 0.000625481, Final residual = 2.84118e-05, No Iterations 1
DILUPBiCG:  Solving for k, Initial residual = 0.00632149, Final residual = 0.000604326, No Iterations 1
bounding k, min: 0 max: 9.95792 average: 0.72344
ExecutionTime = 10.56 s  ClockTime = 11 s

Time = 44s

DILUPBiCG:  Solving for Ux, Initial residual = 0.0102255, Final residual = 0.000406561, No Iterations 1
DILUPBiCG:  Solving for Uy, Initial residual = 0.0139104, Final residual = 0.00052317, No Iterations 1
DILUPBiCG:  Solving for Uz, Initial residual = 0.0137586, Final residual = 0.000502694, No Iterations 1
GAMG:  Solving for p, Initial residual = 0.0762893, Final residual = 0.00718091, No Iterations 24
time step continuity errors : sum local = 0.0135469, global = -0.0017032, cumulative = 1.59447
DILUPBiCG:  Solving for omega, Initial residual = 0.000603481, Final residual = 2.7498e-05, No Iterations 1
DILUPBiCG:  Solving for k, Initial residual = 0.006214, Final residual = 0.00010847, No Iterations 2
bounding k, min: 0 max: 9.92504 average: 0.721411
ExecutionTime = 10.73 s  ClockTime = 12 s

Time = 45s

DILUPBiCG:  Solving for Ux, Initial residual = 0.0100715, Final residual = 0.000400801, No Iterations 1
DILUPBiCG:  Solving for Uy, Initial residual = 0.013766, Final residual = 0.000515398, No Iterations 1
DILUPBiCG:  Solving for Uz, Initial residual = 0.0135879, Final residual = 0.000493973, No Iterations 1
GAMG:  Solving for p, Initial residual = 0.0760256, Final residual = 0.00746261, No Iterations 29
time step continuity errors : sum local = 0.0132622, global = 0.00125795, cumulative = 1.59572
DILUPBiCG:  Solving for omega, Initial residual = 0.000582264, Final residual = 2.66083e-05, No Iterations 1
DILUPBiCG:  Solving for k, Initial residual = 0.00609487, Final residual = 0.000110422, No Iterations 2
bounding k, min: 0 max: 9.88385 average: 0.719168
ExecutionTime = 10.93 s  ClockTime = 12 s

Time = 46s

DILUPBiCG:  Solving for Ux, Initial residual = 0.00990966, Final residual = 0.000394893, No Iterations 1
DILUPBiCG:  Solving for Uy, Initial residual = 0.0135692, Final residual = 0.000506667, No Iterations 1
DILUPBiCG:  Solving for Uz, Initial residual = 0.0133787, Final residual = 0.000484673, No Iterations 1
GAMG:  Solving for p, Initial residual = 0.0745152, Final residual = 0.00732752, No Iterations 21
time step continuity errors : sum local = 0.0124898, global = -0.00146826, cumulative = 1.59426
DILUPBiCG:  Solving for omega, Initial residual = 0.000562295, Final residual = 2.57841e-05, No Iterations 1
DILUPBiCG:  Solving for k, Initial residual = 0.00598302, Final residual = 0.000112426, No Iterations 2
bounding k, min: 0 max: 9.835 average: 0.716727
ExecutionTime = 11.11 s  ClockTime = 12 s

Time = 47s

DILUPBiCG:  Solving for Ux, Initial residual = 0.00972493, Final residual = 0.00038839, No Iterations 1
DILUPBiCG:  Solving for Uy, Initial residual = 0.013322, Final residual = 0.000497369, No Iterations 1
DILUPBiCG:  Solving for Uz, Initial residual = 0.0131522, Final residual = 0.000475522, No Iterations 1
GAMG:  Solving for p, Initial residual = 0.0728974, Final residual = 0.00690057, No Iterations 11
time step continuity errors : sum local = 0.0114643, global = 0.00203967, cumulative = 1.59629
DILUPBiCG:  Solving for omega, Initial residual = 0.000543756, Final residual = 2.50347e-05, No Iterations 1
DILUPBiCG:  Solving for k, Initial residual = 0.00588123, Final residual = 0.000114235, No Iterations 2
bounding k, min: 0 max: 9.77911 average: 0.714107
ExecutionTime = 11.26 s  ClockTime = 12 s

Time = 48s

DILUPBiCG:  Solving for Ux, Initial residual = 0.00953664, Final residual = 0.000381694, No Iterations 1
DILUPBiCG:  Solving for Uy, Initial residual = 0.0130782, Final residual = 0.000488774, No Iterations 1
DILUPBiCG:  Solving for Uz, Initial residual = 0.0129386, Final residual = 0.000467665, No Iterations 1
GAMG:  Solving for p, Initial residual = 0.0700473, Final residual = 0.00686289, No Iterations 8
time step continuity errors : sum local = 0.0113212, global = 0.00169343, cumulative = 1.59799
DILUPBiCG:  Solving for omega, Initial residual = 0.000526652, Final residual = 2.43406e-05, No Iterations 1
DILUPBiCG:  Solving for k, Initial residual = 0.00578932, Final residual = 0.000116288, No Iterations 2
bounding k, min: 0 max: 9.7167 average: 0.711321
ExecutionTime = 11.38 s  ClockTime = 12 s

Time = 49s

DILUPBiCG:  Solving for Ux, Initial residual = 0.0093681, Final residual = 0.000375774, No Iterations 1
DILUPBiCG:  Solving for Uy, Initial residual = 0.0128863, Final residual = 0.00048209, No Iterations 1
DILUPBiCG:  Solving for Uz, Initial residual = 0.0127537, Final residual = 0.000461037, No Iterations 1
GAMG:  Solving for p, Initial residual = 0.0691655, Final residual = 0.00665816, No Iterations 16
time step continuity errors : sum local = 0.0106906, global = 0.00129499, cumulative = 1.59928
DILUPBiCG:  Solving for omega, Initial residual = 0.00051027, Final residual = 2.36681e-05, No Iterations 1
DILUPBiCG:  Solving for k, Initial residual = 0.00570768, Final residual = 0.000533345, No Iterations 1
bounding k, min: 0 max: 9.65903 average: 0.70879
ExecutionTime = 11.51 s  ClockTime = 12 s

Time = 50s

DILUPBiCG:  Solving for Ux, Initial residual = 0.00921259, Final residual = 0.000370345, No Iterations 1
DILUPBiCG:  Solving for Uy, Initial residual = 0.0126694, Final residual = 0.000475027, No Iterations 1
DILUPBiCG:  Solving for Uz, Initial residual = 0.0125545, Final residual = 0.000454057, No Iterations 1
GAMG:  Solving for p, Initial residual = 0.066519, Final residual = 0.00660088, No Iterations 12
time step continuity errors : sum local = 0.0103312, global = 0.0010159, cumulative = 1.6003
DILUPBiCG:  Solving for omega, Initial residual = 0.000494959, Final residual = 2.30478e-05, No Iterations 1
DILUPBiCG:  Solving for k, Initial residual = 0.00564857, Final residual = 0.000444331, No Iterations 1
bounding k, min: 0 max: 9.60109 average: 0.706093
ExecutionTime = 11.66 s  ClockTime = 13 s

Time = 51s

DILUPBiCG:  Solving for Ux, Initial residual = 0.00906656, Final residual = 0.000365165, No Iterations 1
DILUPBiCG:  Solving for Uy, Initial residual = 0.0124847, Final residual = 0.000468938, No Iterations 1
DILUPBiCG:  Solving for Uz, Initial residual = 0.0123791, Final residual = 0.000447579, No Iterations 1
GAMG:  Solving for p, Initial residual = 0.0641922, Final residual = 0.00602028, No Iterations 9
time step continuity errors : sum local = 0.00915026, global = -0.00154193, cumulative = 1.59876
DILUPBiCG:  Solving for omega, Initial residual = 0.000480371, Final residual = 2.24549e-05, No Iterations 1
DILUPBiCG:  Solving for k, Initial residual = 0.00559879, Final residual = 0.00037718, No Iterations 1
bounding k, min: 0 max: 9.53759 average: 0.703238
ExecutionTime = 11.8 s  ClockTime = 13 s

Time = 52s

DILUPBiCG:  Solving for Ux, Initial residual = 0.00892175, Final residual = 0.000360016, No Iterations 1
DILUPBiCG:  Solving for Uy, Initial residual = 0.0123002, Final residual = 0.000462757, No Iterations 1
DILUPBiCG:  Solving for Uz, Initial residual = 0.0122105, Final residual = 0.000441523, No Iterations 1
GAMG:  Solving for p, Initial residual = 0.0628359, Final residual = 0.00611673, No Iterations 12
time step continuity errors : sum local = 0.00898067, global = -0.000428363, cumulative = 1.59833
DILUPBiCG:  Solving for omega, Initial residual = 0.000466333, Final residual = 2.18775e-05, No Iterations 1
DILUPBiCG:  Solving for k, Initial residual = 0.00555534, Final residual = 0.000324375, No Iterations 1
bounding k, min: 0 max: 9.46908 average: 0.700233
ExecutionTime = 11.95 s  ClockTime = 13 s

Time = 53s

DILUPBiCG:  Solving for Ux, Initial residual = 0.00877756, Final residual = 0.00035493, No Iterations 1
DILUPBiCG:  Solving for Uy, Initial residual = 0.0121096, Final residual = 0.000457005, No Iterations 1
DILUPBiCG:  Solving for Uz, Initial residual = 0.0120465, Final residual = 0.000436397, No Iterations 1
GAMG:  Solving for p, Initial residual = 0.063715, Final residual = 0.00618635, No Iterations 18
time step continuity errors : sum local = 0.00865333, global = -0.000778809, cumulative = 1.59755
DILUPBiCG:  Solving for omega, Initial residual = 0.000452686, Final residual = 2.12989e-05, No Iterations 1
DILUPBiCG:  Solving for k, Initial residual = 0.00551715, Final residual = 0.00028248, No Iterations 1
bounding k, min: 0 max: 9.39607 average: 0.697088
ExecutionTime = 12.08 s  ClockTime = 13 s

Time = 54s

DILUPBiCG:  Solving for Ux, Initial residual = 0.0086469, Final residual = 0.000350302, No Iterations 1
DILUPBiCG:  Solving for Uy, Initial residual = 0.0119451, Final residual = 0.000452383, No Iterations 1
DILUPBiCG:  Solving for Uz, Initial residual = 0.0118944, Final residual = 0.000432488, No Iterations 1
GAMG:  Solving for p, Initial residual = 0.0652855, Final residual = 0.00634894, No Iterations 19
time step continuity errors : sum local = 0.00835822, global = -0.00109749, cumulative = 1.59645
DILUPBiCG:  Solving for omega, Initial residual = 0.000439146, Final residual = 2.07138e-05, No Iterations 1
DILUPBiCG:  Solving for k, Initial residual = 0.00547987, Final residual = 0.000248559, No Iterations 1
bounding k, min: 0 max: 9.31904 average: 0.693814
ExecutionTime = 12.24 s  ClockTime = 13 s

Time = 55s

DILUPBiCG:  Solving for Ux, Initial residual = 0.00852899, Final residual = 0.000346006, No Iterations 1
DILUPBiCG:  Solving for Uy, Initial residual = 0.0118039, Final residual = 0.000448502, No Iterations 1
DILUPBiCG:  Solving for Uz, Initial residual = 0.0117606, Final residual = 0.000429374, No Iterations 1
GAMG:  Solving for p, Initial residual = 0.0645311, Final residual = 0.0062026, No Iterations 17
time step continuity errors : sum local = 0.00777313, global = -0.000956164, cumulative = 1.5955
DILUPBiCG:  Solving for omega, Initial residual = 0.000425959, Final residual = 2.0137e-05, No Iterations 1
DILUPBiCG:  Solving for k, Initial residual = 0.0054422, Final residual = 0.000220879, No Iterations 1
bounding k, min: 0 max: 9.23843 average: 0.690419
ExecutionTime = 12.39 s  ClockTime = 13 s

Time = 56s

DILUPBiCG:  Solving for Ux, Initial residual = 0.00840765, Final residual = 0.000341536, No Iterations 1
DILUPBiCG:  Solving for Uy, Initial residual = 0.0116663, Final residual = 0.000444376, No Iterations 1
DILUPBiCG:  Solving for Uz, Initial residual = 0.0116383, Final residual = 0.000426277, No Iterations 1
GAMG:  Solving for p, Initial residual = 0.0632906, Final residual = 0.0063266, No Iterations 13
time step continuity errors : sum local = 0.00761005, global = 0.00075014, cumulative = 1.59625
DILUPBiCG:  Solving for omega, Initial residual = 0.000413311, Final residual = 1.95817e-05, No Iterations 1
DILUPBiCG:  Solving for k, Initial residual = 0.00540408, Final residual = 0.000198206, No Iterations 1
bounding k, min: 0 max: 9.15466 average: 0.686913
ExecutionTime = 12.52 s  ClockTime = 13 s

Time = 57s

DILUPBiCG:  Solving for Ux, Initial residual = 0.00827673, Final residual = 0.000336754, No Iterations 1
DILUPBiCG:  Solving for Uy, Initial residual = 0.0115244, Final residual = 0.0004405, No Iterations 1
DILUPBiCG:  Solving for Uz, Initial residual = 0.0115119, Final residual = 0.000423392, No Iterations 1
GAMG:  Solving for p, Initial residual = 0.0628319, Final residual = 0.00602216, No Iterations 13
time step continuity errors : sum local = 0.00699493, global = -0.000692041, cumulative = 1.59555
DILUPBiCG:  Solving for omega, Initial residual = 0.0004014, Final residual = 1.90534e-05, No Iterations 1
DILUPBiCG:  Solving for k, Initial residual = 0.00536746, Final residual = 0.000179664, No Iterations 1
bounding k, min: 0 max: 9.07224 average: 0.683306
ExecutionTime = 12.67 s  ClockTime = 14 s

Time = 58s

DILUPBiCG:  Solving for Ux, Initial residual = 0.00813953, Final residual = 0.000331734, No Iterations 1
DILUPBiCG:  Solving for Uy, Initial residual = 0.0113734, Final residual = 0.00043687, No Iterations 1
DILUPBiCG:  Solving for Uz, Initial residual = 0.0113714, Final residual = 0.000420944, No Iterations 1
GAMG:  Solving for p, Initial residual = 0.0627244, Final residual = 0.00579764, No Iterations 8
time step continuity errors : sum local = 0.00655269, global = -0.000415482, cumulative = 1.59514
DILUPBiCG:  Solving for omega, Initial residual = 0.00039027, Final residual = 1.85644e-05, No Iterations 1
DILUPBiCG:  Solving for k, Initial residual = 0.00533371, Final residual = 0.000164763, No Iterations 1
bounding k, min: 0 max: 9.02723 average: 0.679608
ExecutionTime = 12.79 s  ClockTime = 14 s

Time = 59s

DILUPBiCG:  Solving for Ux, Initial residual = 0.00800328, Final residual = 0.000326656, No Iterations 1
DILUPBiCG:  Solving for Uy, Initial residual = 0.0112165, Final residual = 0.000433071, No Iterations 1
DILUPBiCG:  Solving for Uz, Initial residual = 0.0112256, Final residual = 0.000418693, No Iterations 1
GAMG:  Solving for p, Initial residual = 0.0609846, Final residual = 0.00565362, No Iterations 6
time step continuity errors : sum local = 0.00628892, global = -0.00046901, cumulative = 1.59467
DILUPBiCG:  Solving for omega, Initial residual = 0.000380064, Final residual = 1.81156e-05, No Iterations 1
DILUPBiCG:  Solving for k, Initial residual = 0.00530474, Final residual = 0.000153756, No Iterations 1
bounding k, min: 0 max: 8.97858 average: 0.675826
ExecutionTime = 12.9 s  ClockTime = 14 s

Time = 60s

DILUPBiCG:  Solving for Ux, Initial residual = 0.00787789, Final residual = 0.000322089, No Iterations 1
DILUPBiCG:  Solving for Uy, Initial residual = 0.0110855, Final residual = 0.000430548, No Iterations 1
DILUPBiCG:  Solving for Uz, Initial residual = 0.011106, Final residual = 0.000416917, No Iterations 1
GAMG:  Solving for p, Initial residual = 0.0590488, Final residual = 0.0058581, No Iterations 5
time step continuity errors : sum local = 0.00635403, global = 0.000861979, cumulative = 1.59553
DILUPBiCG:  Solving for omega, Initial residual = 0.000370204, Final residual = 1.76776e-05, No Iterations 1
DILUPBiCG:  Solving for k, Initial residual = 0.00528028, Final residual = 0.000146505, No Iterations 1
bounding k, min: 0 max: 8.92657 average: 0.671967
ExecutionTime = 13.01 s  ClockTime = 14 s

Time = 61s

DILUPBiCG:  Solving for Ux, Initial residual = 0.00775612, Final residual = 0.000317605, No Iterations 1
DILUPBiCG:  Solving for Uy, Initial residual = 0.0109545, Final residual = 0.000427954, No Iterations 1
DILUPBiCG:  Solving for Uz, Initial residual = 0.0109862, Final residual = 0.00041539, No Iterations 1
GAMG:  Solving for p, Initial residual = 0.0574281, Final residual = 0.00572922, No Iterations 6
time step continuity errors : sum local = 0.00605848, global = 0.0006157, cumulative = 1.59615
DILUPBiCG:  Solving for omega, Initial residual = 0.000360675, Final residual = 1.72469e-05, No Iterations 1
DILUPBiCG:  Solving for k, Initial residual = 0.00526033, Final residual = 0.00014187, No Iterations 1
bounding k, min: 0 max: 8.8715 average: 0.66804
ExecutionTime = 13.12 s  ClockTime = 14 s

Time = 62s

DILUPBiCG:  Solving for Ux, Initial residual = 0.00763615, Final residual = 0.000313158, No Iterations 1
DILUPBiCG:  Solving for Uy, Initial residual = 0.0108321, Final residual = 0.000425249, No Iterations 1
DILUPBiCG:  Solving for Uz, Initial residual = 0.0108714, Final residual = 0.000414511, No Iterations 1
GAMG:  Solving for p, Initial residual = 0.0565316, Final residual = 0.00537303, No Iterations 7
time step continuity errors : sum local = 0.00554237, global = -0.000630329, cumulative = 1.59552
DILUPBiCG:  Solving for omega, Initial residual = 0.000351425, Final residual = 1.68232e-05, No Iterations 1
DILUPBiCG:  Solving for k, Initial residual = 0.00524157, Final residual = 0.000139091, No Iterations 1
bounding k, min: 0 max: 8.81362 average: 0.664051
ExecutionTime = 13.23 s  ClockTime = 14 s

Time = 63s

DILUPBiCG:  Solving for Ux, Initial residual = 0.00751762, Final residual = 0.000308744, No Iterations 1
DILUPBiCG:  Solving for Uy, Initial residual = 0.0107188, Final residual = 0.000422973, No Iterations 1
DILUPBiCG:  Solving for Uz, Initial residual = 0.0107599, Final residual = 0.000413923, No Iterations 1
GAMG:  Solving for p, Initial residual = 0.0550103, Final residual = 0.00484044, No Iterations 6
time step continuity errors : sum local = 0.00487207, global = -0.000211825, cumulative = 1.59531
DILUPBiCG:  Solving for omega, Initial residual = 0.000342454, Final residual = 1.64101e-05, No Iterations 1
DILUPBiCG:  Solving for k, Initial residual = 0.00522427, Final residual = 0.000138022, No Iterations 1
bounding k, min: 0 max: 8.75318 average: 0.660006
ExecutionTime = 13.35 s  ClockTime = 14 s

Time = 64s

DILUPBiCG:  Solving for Ux, Initial residual = 0.00740103, Final residual = 0.000304398, No Iterations 1
DILUPBiCG:  Solving for Uy, Initial residual = 0.0106051, Final residual = 0.00042099, No Iterations 1
DILUPBiCG:  Solving for Uz, Initial residual = 0.0106491, Final residual = 0.000413662, No Iterations 1
GAMG:  Solving for p, Initial residual = 0.0539412, Final residual = 0.00518521, No Iterations 6
time step continuity errors : sum local = 0.00507484, global = -0.000379432, cumulative = 1.59493
DILUPBiCG:  Solving for omega, Initial residual = 0.000333772, Final residual = 1.60051e-05, No Iterations 1
DILUPBiCG:  Solving for k, Initial residual = 0.0052073, Final residual = 0.000138388, No Iterations 1
bounding k, min: 0 max: 8.69039 average: 0.655912
ExecutionTime = 13.46 s  ClockTime = 14 s

Time = 65s

DILUPBiCG:  Solving for Ux, Initial residual = 0.00728604, Final residual = 0.000300093, No Iterations 1
DILUPBiCG:  Solving for Uy, Initial residual = 0.0104947, Final residual = 0.000419247, No Iterations 1
DILUPBiCG:  Solving for Uz, Initial residual = 0.0105421, Final residual = 0.000413989, No Iterations 1
GAMG:  Solving for p, Initial residual = 0.0532635, Final residual = 0.00526546, No Iterations 12
time step continuity errors : sum local = 0.00499852, global = -0.000438713, cumulative = 1.59449
DILUPBiCG:  Solving for omega, Initial residual = 0.000325314, Final residual = 1.5606e-05, No Iterations 1
DILUPBiCG:  Solving for k, Initial residual = 0.00519131, Final residual = 0.000139705, No Iterations 1
bounding k, min: 0 max: 8.62548 average: 0.651772
ExecutionTime = 13.57 s  ClockTime = 15 s

Time = 66s

DILUPBiCG:  Solving for Ux, Initial residual = 0.00717513, Final residual = 0.000295912, No Iterations 1
DILUPBiCG:  Solving for Uy, Initial residual = 0.0103878, Final residual = 0.000417788, No Iterations 1
DILUPBiCG:  Solving for Uz, Initial residual = 0.0104365, Final residual = 0.000414654, No Iterations 1
GAMG:  Solving for p, Initial residual = 0.0529955, Final residual = 0.00523481, No Iterations 14
time step continuity errors : sum local = 0.00478056, global = -0.000446131, cumulative = 1.59404
DILUPBiCG:  Solving for omega, Initial residual = 0.000317018, Final residual = 1.52108e-05, No Iterations 1
DILUPBiCG:  Solving for k, Initial residual = 0.00517665, Final residual = 0.000141575, No Iterations 1
bounding k, min: 0 max: 8.55863 average: 0.647592
ExecutionTime = 13.72 s  ClockTime = 15 s

Time = 67s

DILUPBiCG:  Solving for Ux, Initial residual = 0.00707137, Final residual = 0.000291975, No Iterations 1
DILUPBiCG:  Solving for Uy, Initial residual = 0.0102896, Final residual = 0.000416491, No Iterations 1
DILUPBiCG:  Solving for Uz, Initial residual = 0.0103399, Final residual = 0.000415507, No Iterations 1
GAMG:  Solving for p, Initial residual = 0.0522772, Final residual = 0.00516131, No Iterations 7
time step continuity errors : sum local = 0.00453321, global = -0.000690861, cumulative = 1.59335
DILUPBiCG:  Solving for omega, Initial residual = 0.000308973, Final residual = 1.4828e-05, No Iterations 1
DILUPBiCG:  Solving for k, Initial residual = 0.00516405, Final residual = 0.000143703, No Iterations 1
bounding k, min: 0 max: 8.49003 average: 0.643377
ExecutionTime = 13.83 s  ClockTime = 15 s

Time = 68s

DILUPBiCG:  Solving for Ux, Initial residual = 0.00696748, Final residual = 0.000287991, No Iterations 1
DILUPBiCG:  Solving for Uy, Initial residual = 0.0101951, Final residual = 0.000415417, No Iterations 1
DILUPBiCG:  Solving for Uz, Initial residual = 0.0102488, Final residual = 0.000417024, No Iterations 1
GAMG:  Solving for p, Initial residual = 0.0511884, Final residual = 0.00481064, No Iterations 8
time step continuity errors : sum local = 0.00410211, global = -0.000402318, cumulative = 1.59295
DILUPBiCG:  Solving for omega, Initial residual = 0.000301281, Final residual = 1.44638e-05, No Iterations 1
DILUPBiCG:  Solving for k, Initial residual = 0.00515283, Final residual = 0.000145934, No Iterations 1
bounding k, min: 0 max: 8.41985 average: 0.639132
ExecutionTime = 13.96 s  ClockTime = 15 s

Time = 69s

DILUPBiCG:  Solving for Ux, Initial residual = 0.00686165, Final residual = 0.000283961, No Iterations 1
DILUPBiCG:  Solving for Uy, Initial residual = 0.0101005, Final residual = 0.00041447, No Iterations 1
DILUPBiCG:  Solving for Uz, Initial residual = 0.0101562, Final residual = 0.000419176, No Iterations 1
GAMG:  Solving for p, Initial residual = 0.0502358, Final residual = 0.00471353, No Iterations 8
time step continuity errors : sum local = 0.00390945, global = -0.000447841, cumulative = 1.5925
DILUPBiCG:  Solving for omega, Initial residual = 0.000293973, Final residual = 1.41193e-05, No Iterations 1
DILUPBiCG:  Solving for k, Initial residual = 0.00514258, Final residual = 0.000148126, No Iterations 1
bounding k, min: 0 max: 8.34824 average: 0.634861
ExecutionTime = 14.08 s  ClockTime = 15 s

Time = 70s

DILUPBiCG:  Solving for Ux, Initial residual = 0.00675494, Final residual = 0.00027989, No Iterations 1
DILUPBiCG:  Solving for Uy, Initial residual = 0.0100072, Final residual = 0.000413867, No Iterations 1
DILUPBiCG:  Solving for Uz, Initial residual = 0.0100653, Final residual = 0.000422256, No Iterations 1
GAMG:  Solving for p, Initial residual = 0.0501632, Final residual = 0.00499917, No Iterations 10
time step continuity errors : sum local = 0.00404244, global = -0.000459406, cumulative = 1.59204
DILUPBiCG:  Solving for omega, Initial residual = 0.000287025, Final residual = 1.37922e-05, No Iterations 1
DILUPBiCG:  Solving for k, Initial residual = 0.00513276, Final residual = 0.000150242, No Iterations 1
bounding k, min: 0 max: 8.27583 average: 0.630569
ExecutionTime = 14.2 s  ClockTime = 15 s

Time = 71s

DILUPBiCG:  Solving for Ux, Initial residual = 0.00664671, Final residual = 0.000275742, No Iterations 1
DILUPBiCG:  Solving for Uy, Initial residual = 0.00991267, Final residual = 0.000413281, No Iterations 1
DILUPBiCG:  Solving for Uz, Initial residual = 0.0099734, Final residual = 0.000426137, No Iterations 1
GAMG:  Solving for p, Initial residual = 0.0499874, Final residual = 0.00475484, No Iterations 12
time step continuity errors : sum local = 0.0037605, global = -0.000379822, cumulative = 1.59166
DILUPBiCG:  Solving for omega, Initial residual = 0.000280423, Final residual = 1.34838e-05, No Iterations 1
DILUPBiCG:  Solving for k, Initial residual = 0.00512324, Final residual = 0.000152234, No Iterations 1
bounding k, min: 0 max: 8.20347 average: 0.62626
ExecutionTime = 14.34 s  ClockTime = 15 s

Time = 72s

DILUPBiCG:  Solving for Ux, Initial residual = 0.00653903, Final residual = 0.000271596, No Iterations 1
DILUPBiCG:  Solving for Uy, Initial residual = 0.00981983, Final residual = 0.000412722, No Iterations 1
DILUPBiCG:  Solving for Uz, Initial residual = 0.00988548, Final residual = 0.000430715, No Iterations 1
GAMG:  Solving for p, Initial residual = 0.0492427, Final residual = 0.0046435, No Iterations 8
time step continuity errors : sum local = 0.00359685, global = -0.000317823, cumulative = 1.59134
DILUPBiCG:  Solving for omega, Initial residual = 0.000274211, Final residual = 1.3196e-05, No Iterations 1
DILUPBiCG:  Solving for k, Initial residual = 0.00511362, Final residual = 0.000154124, No Iterations 1
bounding k, min: 0 max: 8.13 average: 0.621939
ExecutionTime = 14.45 s  ClockTime = 15 s

Time = 73s

DILUPBiCG:  Solving for Ux, Initial residual = 0.00643522, Final residual = 0.000267585, No Iterations 1
DILUPBiCG:  Solving for Uy, Initial residual = 0.00972929, Final residual = 0.000412598, No Iterations 1
DILUPBiCG:  Solving for Uz, Initial residual = 0.00980254, Final residual = 0.00043695, No Iterations 1
GAMG:  Solving for p, Initial residual = 0.0482066, Final residual = 0.00443512, No Iterations 6
time step continuity errors : sum local = 0.00336873, global = -0.000247645, cumulative = 1.5911
DILUPBiCG:  Solving for omega, Initial residual = 0.000268258, Final residual = 1.29207e-05, No Iterations 1
DILUPBiCG:  Solving for k, Initial residual = 0.0051036, Final residual = 0.000155909, No Iterations 1
bounding k, min: 0 max: 8.05555 average: 0.617608
ExecutionTime = 14.56 s  ClockTime = 16 s

Time = 74s

DILUPBiCG:  Solving for Ux, Initial residual = 0.0063342, Final residual = 0.000263667, No Iterations 1
DILUPBiCG:  Solving for Uy, Initial residual = 0.00964183, Final residual = 0.000412736, No Iterations 1
DILUPBiCG:  Solving for Uz, Initial residual = 0.0097211, Final residual = 0.000444296, No Iterations 1
GAMG:  Solving for p, Initial residual = 0.047326, Final residual = 0.00453193, No Iterations 5
time step continuity errors : sum local = 0.00337734, global = 0.000474119, cumulative = 1.59157
DILUPBiCG:  Solving for omega, Initial residual = 0.000262509, Final residual = 1.26554e-05, No Iterations 1
DILUPBiCG:  Solving for k, Initial residual = 0.00509345, Final residual = 0.000157621, No Iterations 1
bounding k, min: 0 max: 7.98123 average: 0.613273
ExecutionTime = 14.66 s  ClockTime = 16 s

Time = 75s

DILUPBiCG:  Solving for Ux, Initial residual = 0.0062355, Final residual = 0.000259834, No Iterations 1
DILUPBiCG:  Solving for Uy, Initial residual = 0.00955552, Final residual = 0.000413218, No Iterations 1
DILUPBiCG:  Solving for Uz, Initial residual = 0.00964142, Final residual = 0.000454209, No Iterations 1
GAMG:  Solving for p, Initial residual = 0.0464114, Final residual = 0.00405327, No Iterations 4
time step continuity errors : sum local = 0.00296397, global = 0.000286602, cumulative = 1.59186
DILUPBiCG:  Solving for omega, Initial residual = 0.000256938, Final residual = 1.23966e-05, No Iterations 1
DILUPBiCG:  Solving for k, Initial residual = 0.00508333, Final residual = 0.000159245, No Iterations 1
bounding k, min: 0 max: 7.90758 average: 0.608935
ExecutionTime = 14.75 s  ClockTime = 16 s

Time = 76s

DILUPBiCG:  Solving for Ux, Initial residual = 0.00613841, Final residual = 0.000256058, No Iterations 1
DILUPBiCG:  Solving for Uy, Initial residual = 0.00947625, Final residual = 0.000414041, No Iterations 1
DILUPBiCG:  Solving for Uz, Initial residual = 0.00956856, Final residual = 0.000465561, No Iterations 1
GAMG:  Solving for p, Initial residual = 0.0458286, Final residual = 0.00411823, No Iterations 4
time step continuity errors : sum local = 0.00295677, global = 0.000225263, cumulative = 1.59208
DILUPBiCG:  Solving for omega, Initial residual = 0.000251527, Final residual = 1.21448e-05, No Iterations 1
DILUPBiCG:  Solving for k, Initial residual = 0.00507352, Final residual = 0.000160764, No Iterations 1
bounding k, min: 0 max: 7.83321 average: 0.604599
ExecutionTime = 14.86 s  ClockTime = 16 s

Time = 77s

DILUPBiCG:  Solving for Ux, Initial residual = 0.00604284, Final residual = 0.000252336, No Iterations 1
DILUPBiCG:  Solving for Uy, Initial residual = 0.00939582, Final residual = 0.0004152, No Iterations 1
DILUPBiCG:  Solving for Uz, Initial residual = 0.00949898, Final residual = 0.000480172, No Iterations 1
GAMG:  Solving for p, Initial residual = 0.0452864, Final residual = 0.00355317, No Iterations 5
time step continuity errors : sum local = 0.00250459, global = -0.000310809, cumulative = 1.59177
DILUPBiCG:  Solving for omega, Initial residual = 0.000246288, Final residual = 1.19007e-05, No Iterations 1
DILUPBiCG:  Solving for k, Initial residual = 0.00506384, Final residual = 0.000162205, No Iterations 1
bounding k, min: 0 max: 7.77006 average: 0.600267
ExecutionTime = 14.96 s  ClockTime = 16 s

Time = 78s

DILUPBiCG:  Solving for Ux, Initial residual = 0.00594846, Final residual = 0.000248658, No Iterations 1
DILUPBiCG:  Solving for Uy, Initial residual = 0.00931468, Final residual = 0.000416566, No Iterations 1
DILUPBiCG:  Solving for Uz, Initial residual = 0.00943257, Final residual = 0.00049923, No Iterations 1
GAMG:  Solving for p, Initial residual = 0.0445936, Final residual = 0.00374614, No Iterations 6
time step continuity errors : sum local = 0.00259227, global = -0.000335066, cumulative = 1.59144
DILUPBiCG:  Solving for omega, Initial residual = 0.000241182, Final residual = 1.1664e-05, No Iterations 1
DILUPBiCG:  Solving for k, Initial residual = 0.00505351, Final residual = 0.000163534, No Iterations 1
bounding k, min: 0 max: 7.72167 average: 0.595943
ExecutionTime = 15.07 s  ClockTime = 16 s

Time = 79s

DILUPBiCG:  Solving for Ux, Initial residual = 0.00585608, Final residual = 0.000245083, No Iterations 1
DILUPBiCG:  Solving for Uy, Initial residual = 0.00923303, Final residual = 0.00041811, No Iterations 1
DILUPBiCG:  Solving for Uz, Initial residual = 0.00936994, Final residual = 0.000524328, No Iterations 1
GAMG:  Solving for p, Initial residual = 0.0440178, Final residual = 0.00431752, No Iterations 8
time step continuity errors : sum local = 0.0029262, global = -0.000346764, cumulative = 1.59109
DILUPBiCG:  Solving for omega, Initial residual = 0.000236221, Final residual = 1.14345e-05, No Iterations 1
DILUPBiCG:  Solving for k, Initial residual = 0.00504236, Final residual = 0.000164748, No Iterations 1
bounding k, min: 0 max: 7.67207 average: 0.59163
ExecutionTime = 15.18 s  ClockTime = 16 s

Time = 80s

DILUPBiCG:  Solving for Ux, Initial residual = 0.00576631, Final residual = 0.000241619, No Iterations 1
DILUPBiCG:  Solving for Uy, Initial residual = 0.00915498, Final residual = 0.000420492, No Iterations 1
DILUPBiCG:  Solving for Uz, Initial residual = 0.00931381, Final residual = 0.000559392, No Iterations 1
GAMG:  Solving for p, Initial residual = 0.0435428, Final residual = 0.00417851, No Iterations 14
time step continuity errors : sum local = 0.00276828, global = -0.000403018, cumulative = 1.59069
DILUPBiCG:  Solving for omega, Initial residual = 0.000231408, Final residual = 1.12108e-05, No Iterations 1
DILUPBiCG:  Solving for k, Initial residual = 0.00503039, Final residual = 0.000165839, No Iterations 1
bounding k, min: 0 max: 7.62136 average: 0.58733
ExecutionTime = 15.32 s  ClockTime = 16 s

Time = 81s

DILUPBiCG:  Solving for Ux, Initial residual = 0.00568052, Final residual = 0.000238317, No Iterations 1
DILUPBiCG:  Solving for Uy, Initial residual = 0.00908114, Final residual = 0.000424247, No Iterations 1
DILUPBiCG:  Solving for Uz, Initial residual = 0.00926626, Final residual = 0.000612928, No Iterations 1
GAMG:  Solving for p, Initial residual = 0.042864, Final residual = 0.00395661, No Iterations 14
time step continuity errors : sum local = 0.00255546, global = -0.000401536, cumulative = 1.59028
DILUPBiCG:  Solving for omega, Initial residual = 0.000226714, Final residual = 1.09939e-05, No Iterations 1
DILUPBiCG:  Solving for k, Initial residual = 0.00501769, Final residual = 0.000166825, No Iterations 1
bounding k, min: 0 max: 7.56962 average: 0.583044
ExecutionTime = 15.45 s  ClockTime = 16 s

Time = 82s

DILUPBiCG:  Solving for Ux, Initial residual = 0.00559726, Final residual = 0.000235115, No Iterations 1
DILUPBiCG:  Solving for Uy, Initial residual = 0.0090111, Final residual = 0.000429027, No Iterations 1
DILUPBiCG:  Solving for Uz, Initial residual = 0.00922781, Final residual = 0.00068227, No Iterations 1
GAMG:  Solving for p, Initial residual = 0.041859, Final residual = 0.00392257, No Iterations 6
time step continuity errors : sum local = 0.00247325, global = -0.000383956, cumulative = 1.5899
DILUPBiCG:  Solving for omega, Initial residual = 0.000222202, Final residual = 1.07883e-05, No Iterations 1
DILUPBiCG:  Solving for k, Initial residual = 0.00500423, Final residual = 0.000167715, No Iterations 1
bounding k, min: 0 max: 7.51694 average: 0.578777
ExecutionTime = 15.55 s  ClockTime = 17 s

Time = 83s

DILUPBiCG:  Solving for Ux, Initial residual = 0.00551245, Final residual = 0.000231826, No Iterations 1
DILUPBiCG:  Solving for Uy, Initial residual = 0.00894247, Final residual = 0.000434651, No Iterations 1
DILUPBiCG:  Solving for Uz, Initial residual = 0.00919164, Final residual = 0.000762032, No Iterations 1
GAMG:  Solving for p, Initial residual = 0.040804, Final residual = 0.00346845, No Iterations 5
time step continuity errors : sum local = 0.00214657, global = 0.000180974, cumulative = 1.59008
DILUPBiCG:  Solving for omega, Initial residual = 0.000217891, Final residual = 1.05936e-05, No Iterations 1
DILUPBiCG:  Solving for k, Initial residual = 0.00498998, Final residual = 0.000168489, No Iterations 1
bounding k, min: 0 max: 7.46339 average: 0.57453
ExecutionTime = 15.65 s  ClockTime = 17 s

Time = 84s

DILUPBiCG:  Solving for Ux, Initial residual = 0.0054285, Final residual = 0.000228572, No Iterations 1
DILUPBiCG:  Solving for Uy, Initial residual = 0.00887197, Final residual = 0.000441625, No Iterations 1
DILUPBiCG:  Solving for Uz, Initial residual = 0.00915888, Final residual = 0.000864901, No Iterations 1
GAMG:  Solving for p, Initial residual = 0.0404941, Final residual = 0.00351107, No Iterations 5
time step continuity errors : sum local = 0.00213447, global = -0.000307897, cumulative = 1.58977
DILUPBiCG:  Solving for omega, Initial residual = 0.000213766, Final residual = 1.04067e-05, No Iterations 1
DILUPBiCG:  Solving for k, Initial residual = 0.00497476, Final residual = 0.000169163, No Iterations 1
bounding k, min: 0 max: 7.40905 average: 0.570306
ExecutionTime = 15.76 s  ClockTime = 17 s

Time = 85s

DILUPBiCG:  Solving for Ux, Initial residual = 0.00534503, Final residual = 0.000225303, No Iterations 1
DILUPBiCG:  Solving for Uy, Initial residual = 0.00880338, Final residual = 0.000450335, No Iterations 1
DILUPBiCG:  Solving for Uz, Initial residual = 0.00914004, Final residual = 3.41812e-05, No Iterations 3
GAMG:  Solving for p, Initial residual = 0.0443394, Final residual = 0.00394407, No Iterations 6
time step continuity errors : sum local = 0.00236054, global = -0.000332637, cumulative = 1.58944
DILUPBiCG:  Solving for omega, Initial residual = 0.000209778, Final residual = 1.02279e-05, No Iterations 1
DILUPBiCG:  Solving for k, Initial residual = 0.00495894, Final residual = 0.000169727, No Iterations 1
bounding k, min: 0 max: 7.35398 average: 0.566106
ExecutionTime = 15.88 s  ClockTime = 17 s

Time = 86s

DILUPBiCG:  Solving for Ux, Initial residual = 0.00526401, Final residual = 0.000222135, No Iterations 1
DILUPBiCG:  Solving for Uy, Initial residual = 0.00873114, Final residual = 0.000466974, No Iterations 1
DILUPBiCG:  Solving for Uz, Initial residual = 0.0088242, Final residual = 6.97365e-05, No Iterations 2
GAMG:  Solving for p, Initial residual = 0.0431148, Final residual = 0.00401674, No Iterations 8
time step continuity errors : sum local = 0.00236485, global = -0.000257582, cumulative = 1.58918
DILUPBiCG:  Solving for omega, Initial residual = 0.000205982, Final residual = 1.00594e-05, No Iterations 1
DILUPBiCG:  Solving for k, Initial residual = 0.00494291, Final residual = 0.000170186, No Iterations 1
bounding k, min: 0 max: 7.29825 average: 0.561933
ExecutionTime = 15.98 s  ClockTime = 17 s

Time = 87s

DILUPBiCG:  Solving for Ux, Initial residual = 0.00518342, Final residual = 0.000218975, No Iterations 1
DILUPBiCG:  Solving for Uy, Initial residual = 0.008675, Final residual = 0.000486092, No Iterations 1
DILUPBiCG:  Solving for Uz, Initial residual = 0.00857963, Final residual = 4.10457e-05, No Iterations 2
GAMG:  Solving for p, Initial residual = 0.041276, Final residual = 0.00404868, No Iterations 8
time step continuity errors : sum local = 0.00234661, global = -0.000218892, cumulative = 1.58896
DILUPBiCG:  Solving for omega, Initial residual = 0.000202333, Final residual = 9.89795e-06, No Iterations 1
DILUPBiCG:  Solving for k, Initial residual = 0.00492649, Final residual = 0.000170557, No Iterations 1
bounding k, min: 0 max: 7.24192 average: 0.557787
ExecutionTime = 16.08 s  ClockTime = 17 s

Time = 88s

DILUPBiCG:  Solving for Ux, Initial residual = 0.00510337, Final residual = 0.000215824, No Iterations 1
DILUPBiCG:  Solving for Uy, Initial residual = 0.0086298, Final residual = 0.000506981, No Iterations 1
DILUPBiCG:  Solving for Uz, Initial residual = 0.00852324, Final residual = 3.96801e-05, No Iterations 2
GAMG:  Solving for p, Initial residual = 0.0408432, Final residual = 0.00371484, No Iterations 8
time step continuity errors : sum local = 0.00212016, global = -0.000176173, cumulative = 1.58879
DILUPBiCG:  Solving for omega, Initial residual = 0.000198813, Final residual = 9.74183e-06, No Iterations 1
DILUPBiCG:  Solving for k, Initial residual = 0.00490948, Final residual = 0.000170843, No Iterations 1
bounding k, min: 0 max: 7.18506 average: 0.553671
ExecutionTime = 16.19 s  ClockTime = 17 s

Time = 89s

DILUPBiCG:  Solving for Ux, Initial residual = 0.00502476, Final residual = 0.000212711, No Iterations 1
DILUPBiCG:  Solving for Uy, Initial residual = 0.00857925, Final residual = 0.00053331, No Iterations 1
DILUPBiCG:  Solving for Uz, Initial residual = 0.00856638, Final residual = 4.30159e-05, No Iterations 2
GAMG:  Solving for p, Initial residual = 0.0397933, Final residual = 0.00351629, No Iterations 6
time step continuity errors : sum local = 0.00197797, global = -0.000132497, cumulative = 1.58866
DILUPBiCG:  Solving for omega, Initial residual = 0.000195402, Final residual = 9.59012e-06, No Iterations 1
DILUPBiCG:  Solving for k, Initial residual = 0.00489173, Final residual = 0.00017107, No Iterations 1
bounding k, min: 0 max: 7.12863 average: 0.549586
ExecutionTime = 16.29 s  ClockTime = 17 s

Time = 90s

DILUPBiCG:  Solving for Ux, Initial residual = 0.00494831, Final residual = 0.000209665, No Iterations 1
DILUPBiCG:  Solving for Uy, Initial residual = 0.00852388, Final residual = 0.0005712, No Iterations 1
DILUPBiCG:  Solving for Uz, Initial residual = 0.00858586, Final residual = 4.37041e-05, No Iterations 2
GAMG:  Solving for p, Initial residual = 0.0387881, Final residual = 0.00345415, No Iterations 4
time step continuity errors : sum local = 0.00191718, global = -9.1771e-05, cumulative = 1.58856
DILUPBiCG:  Solving for omega, Initial residual = 0.00019207, Final residual = 9.44107e-06, No Iterations 1
DILUPBiCG:  Solving for k, Initial residual = 0.00487339, Final residual = 0.000171234, No Iterations 1
bounding k, min: 0 max: 7.07205 average: 0.545533
ExecutionTime = 16.39 s  ClockTime = 17 s

Time = 91s

DILUPBiCG:  Solving for Ux, Initial residual = 0.00487378, Final residual = 0.000206682, No Iterations 1
DILUPBiCG:  Solving for Uy, Initial residual = 0.00847207, Final residual = 0.000621777, No Iterations 1
DILUPBiCG:  Solving for Uz, Initial residual = 0.00854178, Final residual = 4.13679e-05, No Iterations 2
GAMG:  Solving for p, Initial residual = 0.0382926, Final residual = 0.00313115, No Iterations 4
time step continuity errors : sum local = 0.00171567, global = -6.89236e-05, cumulative = 1.58849
DILUPBiCG:  Solving for omega, Initial residual = 0.000188799, Final residual = 9.29375e-06, No Iterations 1
DILUPBiCG:  Solving for k, Initial residual = 0.00485444, Final residual = 0.000171357, No Iterations 1
bounding k, min: 0 max: 7.01507 average: 0.541513
ExecutionTime = 16.49 s  ClockTime = 18 s

Time = 92s

DILUPBiCG:  Solving for Ux, Initial residual = 0.00480098, Final residual = 0.000203752, No Iterations 1
DILUPBiCG:  Solving for Uy, Initial residual = 0.0084271, Final residual = 0.000679327, No Iterations 1
DILUPBiCG:  Solving for Uz, Initial residual = 0.00846413, Final residual = 3.86516e-05, No Iterations 2
GAMG:  Solving for p, Initial residual = 0.0379813, Final residual = 0.00344132, No Iterations 4
time step continuity errors : sum local = 0.00186132, global = -7.69745e-05, cumulative = 1.58842
DILUPBiCG:  Solving for omega, Initial residual = 0.000185582, Final residual = 9.14778e-06, No Iterations 1
DILUPBiCG:  Solving for k, Initial residual = 0.00483499, Final residual = 0.000171465, No Iterations 1
bounding k, min: 0 max: 6.95774 average: 0.537527
ExecutionTime = 16.6 s  ClockTime = 18 s

Time = 93s

DILUPBiCG:  Solving for Ux, Initial residual = 0.00472966, Final residual = 0.000200883, No Iterations 1
DILUPBiCG:  Solving for Uy, Initial residual = 0.00838489, Final residual = 0.000744885, No Iterations 1
DILUPBiCG:  Solving for Uz, Initial residual = 0.00839126, Final residual = 3.6703e-05, No Iterations 2
GAMG:  Solving for p, Initial residual = 0.0381322, Final residual = 0.00353468, No Iterations 6
time step continuity errors : sum local = 0.00188672, global = -9.74008e-05, cumulative = 1.58832
DILUPBiCG:  Solving for omega, Initial residual = 0.000182421, Final residual = 9.00328e-06, No Iterations 1
DILUPBiCG:  Solving for k, Initial residual = 0.00481496, Final residual = 0.000171506, No Iterations 1
bounding k, min: 0 max: 6.9001 average: 0.533576
ExecutionTime = 16.7 s  ClockTime = 18 s

Time = 94s

DILUPBiCG:  Solving for Ux, Initial residual = 0.00466017, Final residual = 0.000198078, No Iterations 1
DILUPBiCG:  Solving for Uy, Initial residual = 0.00834533, Final residual = 0.000821525, No Iterations 1
DILUPBiCG:  Solving for Uz, Initial residual = 0.00833627, Final residual = 3.51126e-05, No Iterations 2
GAMG:  Solving for p, Initial residual = 0.0382623, Final residual = 0.00354528, No Iterations 8
time step continuity errors : sum local = 0.00186707, global = -0.000126427, cumulative = 1.58819
DILUPBiCG:  Solving for omega, Initial residual = 0.000179311, Final residual = 8.85976e-06, No Iterations 1
DILUPBiCG:  Solving for k, Initial residual = 0.00479439, Final residual = 0.000171482, No Iterations 1
bounding k, min: 0 max: 6.84219 average: 0.529661
ExecutionTime = 16.8 s  ClockTime = 18 s

Time = 95s

DILUPBiCG:  Solving for Ux, Initial residual = 0.00459273, Final residual = 0.000195355, No Iterations 1
DILUPBiCG:  Solving for Uy, Initial residual = 0.00831241, Final residual = 0.000164116, No Iterations 2
DILUPBiCG:  Solving for Uz, Initial residual = 0.008293, Final residual = 3.3928e-05, No Iterations 2
GAMG:  Solving for p, Initial residual = 0.0402989, Final residual = 0.00371242, No Iterations 6
time step continuity errors : sum local = 0.0019299, global = -0.00016386, cumulative = 1.58803
DILUPBiCG:  Solving for omega, Initial residual = 0.000176241, Final residual = 8.71735e-06, No Iterations 1
DILUPBiCG:  Solving for k, Initial residual = 0.00477347, Final residual = 0.000171382, No Iterations 1
bounding k, min: 0 max: 6.78403 average: 0.525783
ExecutionTime = 16.9 s  ClockTime = 18 s

Time = 96s

[...]

Time = 477s

DILUPBiCG:  Solving for Ux, Initial residual = 0.000581314, Final residual = 2.66698e-05, No Iterations 1
DILUPBiCG:  Solving for Uy, Initial residual = 0.00590875, Final residual = 0.000211011, No Iterations 1
DILUPBiCG:  Solving for Uz, Initial residual = 0.00809159, Final residual = 0.000285358, No Iterations 1
GAMG:  Solving for p, Initial residual = 0.0191948, Final residual = 0.00183682, No Iterations 6
time step continuity errors : sum local = 6.6873e-05, global = -1.32703e-06, cumulative = 1.5789
DILUPBiCG:  Solving for omega, Initial residual = 9.54967e-06, Final residual = 6.09442e-07, No Iterations 1
DILUPBiCG:  Solving for k, Initial residual = 0.00277622, Final residual = 4.47285e-05, No Iterations 1
bounding k, min: 0 max: 0.744502 average: 0.104511
ExecutionTime = 57.13 s  ClockTime = 60 s

Time = 478s

DILUPBiCG:  Solving for Ux, Initial residual = 0.000578608, Final residual = 2.65405e-05, No Iterations 1
DILUPBiCG:  Solving for Uy, Initial residual = 0.00592499, Final residual = 0.000211618, No Iterations 1
DILUPBiCG:  Solving for Uz, Initial residual = 0.00810207, Final residual = 0.000286, No Iterations 1
GAMG:  Solving for p, Initial residual = 0.0193368, Final residual = 0.00185065, No Iterations 6
time step continuity errors : sum local = 6.72264e-05, global = -1.37731e-06, cumulative = 1.5789
DILUPBiCG:  Solving for omega, Initial residual = 9.51494e-06, Final residual = 6.07186e-07, No Iterations 1
DILUPBiCG:  Solving for k, Initial residual = 0.00277919, Final residual = 4.47418e-05, No Iterations 1
bounding k, min: 0 max: 0.741237 average: 0.104066
ExecutionTime = 57.24 s  ClockTime = 60 s

Time = 479s

DILUPBiCG:  Solving for Ux, Initial residual = 0.00057592, Final residual = 2.64124e-05, No Iterations 1
DILUPBiCG:  Solving for Uy, Initial residual = 0.00594209, Final residual = 0.000212259, No Iterations 1
DILUPBiCG:  Solving for Uz, Initial residual = 0.00811318, Final residual = 0.000286665, No Iterations 1
GAMG:  Solving for p, Initial residual = 0.0192282, Final residual = 0.00190954, No Iterations 6
time step continuity errors : sum local = 6.92121e-05, global = 1.1177e-06, cumulative = 1.5789
DILUPBiCG:  Solving for omega, Initial residual = 9.48009e-06, Final residual = 6.04958e-07, No Iterations 1
DILUPBiCG:  Solving for k, Initial residual = 0.00278217, Final residual = 4.47554e-05, No Iterations 1
bounding k, min: 0 max: 0.738007 average: 0.103623
ExecutionTime = 57.34 s  ClockTime = 60 s

Time = 480s

DILUPBiCG:  Solving for Ux, Initial residual = 0.000573242, Final residual = 2.63173e-05, No Iterations 1
DILUPBiCG:  Solving for Uy, Initial residual = 0.00596139, Final residual = 0.000212994, No Iterations 1
DILUPBiCG:  Solving for Uz, Initial residual = 0.00812732, Final residual = 0.000287515, No Iterations 1
GAMG:  Solving for p, Initial residual = 0.0190677, Final residual = 0.00187173, No Iterations 6
time step continuity errors : sum local = 6.7709e-05, global = -1.25996e-06, cumulative = 1.5789
DILUPBiCG:  Solving for omega, Initial residual = 9.4449e-06, Final residual = 6.02666e-07, No Iterations 1
DILUPBiCG:  Solving for k, Initial residual = 0.00278516, Final residual = 4.47692e-05, No Iterations 1
bounding k, min: 0 max: 0.735193 average: 0.103181
ExecutionTime = 57.46 s  ClockTime = 60 s

Time = 481s

DILUPBiCG:  Solving for Ux, Initial residual = 0.00057058, Final residual = 2.61776e-05, No Iterations 1
DILUPBiCG:  Solving for Uy, Initial residual = 0.00597849, Final residual = 0.000213682, No Iterations 1
DILUPBiCG:  Solving for Uz, Initial residual = 0.00813906, Final residual = 0.000288339, No Iterations 1
GAMG:  Solving for p, Initial residual = 0.0191505, Final residual = 0.00187204, No Iterations 6
time step continuity errors : sum local = 6.75728e-05, global = -1.36328e-06, cumulative = 1.5789
DILUPBiCG:  Solving for omega, Initial residual = 9.41018e-06, Final residual = 6.00439e-07, No Iterations 1
DILUPBiCG:  Solving for k, Initial residual = 0.00278818, Final residual = 4.47833e-05, No Iterations 1
bounding k, min: 0 max: 0.732381 average: 0.102742
ExecutionTime = 57.56 s  ClockTime = 60 s

Time = 482s

DILUPBiCG:  Solving for Ux, Initial residual = 0.000567934, Final residual = 2.60479e-05, No Iterations 1
DILUPBiCG:  Solving for Uy, Initial residual = 0.00599643, Final residual = 0.000214401, No Iterations 1
DILUPBiCG:  Solving for Uz, Initial residual = 0.0081526, Final residual = 0.000289267, No Iterations 1
GAMG:  Solving for p, Initial residual = 0.0191422, Final residual = 0.00189529, No Iterations 7
time step continuity errors : sum local = 6.82628e-05, global = -4.99065e-06, cumulative = 1.57889
DILUPBiCG:  Solving for omega, Initial residual = 9.37536e-06, Final residual = 5.98187e-07, No Iterations 1
DILUPBiCG:  Solving for k, Initial residual = 0.00279121, Final residual = 4.47978e-05, No Iterations 1
bounding k, min: 0 max: 0.729571 average: 0.102304
ExecutionTime = 57.66 s  ClockTime = 60 s

Time = 483s

DILUPBiCG:  Solving for Ux, Initial residual = 0.0005653, Final residual = 2.59141e-05, No Iterations 1
DILUPBiCG:  Solving for Uy, Initial residual = 0.00601574, Final residual = 0.000215181, No Iterations 1
DILUPBiCG:  Solving for Uz, Initial residual = 0.00816685, Final residual = 0.000290244, No Iterations 1
GAMG:  Solving for p, Initial residual = 0.0192516, Final residual = 0.00172073, No Iterations 7
time step continuity errors : sum local = 6.18614e-05, global = -8.697e-07, cumulative = 1.57889
DILUPBiCG:  Solving for omega, Initial residual = 9.34032e-06, Final residual = 5.96009e-07, No Iterations 1
DILUPBiCG:  Solving for k, Initial residual = 0.00279425, Final residual = 4.48124e-05, No Iterations 1
bounding k, min: 0 max: 0.726765 average: 0.101868
ExecutionTime = 57.77 s  ClockTime = 61 s

Time = 484s

DILUPBiCG:  Solving for Ux, Initial residual = 0.00056271, Final residual = 2.58427e-05, No Iterations 1
DILUPBiCG:  Solving for Uy, Initial residual = 0.00603346, Final residual = 0.000215908, No Iterations 1
DILUPBiCG:  Solving for Uz, Initial residual = 0.00818079, Final residual = 0.000291146, No Iterations 1
GAMG:  Solving for p, Initial residual = 0.0192474, Final residual = 0.00171393, No Iterations 5
time step continuity errors : sum local = 6.1498e-05, global = -2.38532e-06, cumulative = 1.57889
DILUPBiCG:  Solving for omega, Initial residual = 9.30509e-06, Final residual = 5.93718e-07, No Iterations 1
DILUPBiCG:  Solving for k, Initial residual = 0.00279732, Final residual = 4.48276e-05, No Iterations 1
bounding k, min: 0 max: 0.723961 average: 0.101434
ExecutionTime = 57.88 s  ClockTime = 61 s

Time = 485s

DILUPBiCG:  Solving for Ux, Initial residual = 0.000560114, Final residual = 2.57388e-05, No Iterations 1
DILUPBiCG:  Solving for Uy, Initial residual = 0.00605021, Final residual = 0.000216675, No Iterations 1
DILUPBiCG:  Solving for Uz, Initial residual = 0.00819391, Final residual = 0.00029208, No Iterations 1
GAMG:  Solving for p, Initial residual = 0.0192639, Final residual = 0.00172769, No Iterations 5
time step continuity errors : sum local = 6.18845e-05, global = -2.70525e-06, cumulative = 1.57888
DILUPBiCG:  Solving for omega, Initial residual = 9.26992e-06, Final residual = 5.91461e-07, No Iterations 1
DILUPBiCG:  Solving for k, Initial residual = 0.0028004, Final residual = 4.48431e-05, No Iterations 1
bounding k, min: 0 max: 0.721159 average: 0.101002
ExecutionTime = 57.97 s  ClockTime = 61 s

Time = 486s

DILUPBiCG:  Solving for Ux, Initial residual = 0.00055753, Final residual = 2.56122e-05, No Iterations 1
DILUPBiCG:  Solving for Uy, Initial residual = 0.00606518, Final residual = 0.000217416, No Iterations 1
DILUPBiCG:  Solving for Uz, Initial residual = 0.00820408, Final residual = 0.000293012, No Iterations 1
GAMG:  Solving for p, Initial residual = 0.0193134, Final residual = 0.00165975, No Iterations 6
time step continuity errors : sum local = 5.93478e-05, global = -4.94164e-07, cumulative = 1.57888
DILUPBiCG:  Solving for omega, Initial residual = 9.23538e-06, Final residual = 5.89254e-07, No Iterations 1
DILUPBiCG:  Solving for k, Initial residual = 0.0028035, Final residual = 4.48589e-05, No Iterations 1
bounding k, min: 0 max: 0.71836 average: 0.100572
ExecutionTime = 58.07 s  ClockTime = 61 s

Time = 487s

DILUPBiCG:  Solving for Ux, Initial residual = 0.000554976, Final residual = 2.54827e-05, No Iterations 1
DILUPBiCG:  Solving for Uy, Initial residual = 0.00607921, Final residual = 0.000218167, No Iterations 1
DILUPBiCG:  Solving for Uz, Initial residual = 0.00821278, Final residual = 0.000293947, No Iterations 1
GAMG:  Solving for p, Initial residual = 0.0194257, Final residual = 0.00169334, No Iterations 6
time step continuity errors : sum local = 6.04252e-05, global = -3.90558e-07, cumulative = 1.57888
DILUPBiCG:  Solving for omega, Initial residual = 9.20128e-06, Final residual = 5.87042e-07, No Iterations 1
DILUPBiCG:  Solving for k, Initial residual = 0.00280662, Final residual = 4.4875e-05, No Iterations 1
bounding k, min: 0 max: 0.715564 average: 0.100143
ExecutionTime = 58.17 s  ClockTime = 61 s

Time = 488s

DILUPBiCG:  Solving for Ux, Initial residual = 0.000552419, Final residual = 2.53521e-05, No Iterations 1
DILUPBiCG:  Solving for Uy, Initial residual = 0.00609378, Final residual = 0.000218965, No Iterations 1
DILUPBiCG:  Solving for Uz, Initial residual = 0.00822404, Final residual = 0.00029498, No Iterations 1
GAMG:  Solving for p, Initial residual = 0.0196461, Final residual = 0.00173143, No Iterations 6
time step continuity errors : sum local = 6.16626e-05, global = -3.78612e-07, cumulative = 1.57888
DILUPBiCG:  Solving for omega, Initial residual = 9.16725e-06, Final residual = 5.84838e-07, No Iterations 1
DILUPBiCG:  Solving for k, Initial residual = 0.00280976, Final residual = 4.48916e-05, No Iterations 1
bounding k, min: 0 max: 0.712771 average: 0.0997162
ExecutionTime = 58.28 s  ClockTime = 61 s

Time = 489s

DILUPBiCG:  Solving for Ux, Initial residual = 0.000549865, Final residual = 2.52302e-05, No Iterations 1
DILUPBiCG:  Solving for Uy, Initial residual = 0.00610886, Final residual = 0.000219796, No Iterations 1
DILUPBiCG:  Solving for Uz, Initial residual = 0.00823563, Final residual = 0.00029602, No Iterations 1
GAMG:  Solving for p, Initial residual = 0.0197001, Final residual = 0.00178921, No Iterations 6
time step continuity errors : sum local = 6.35973e-05, global = -4.02005e-07, cumulative = 1.57888
DILUPBiCG:  Solving for omega, Initial residual = 9.13316e-06, Final residual = 5.82626e-07, No Iterations 1
DILUPBiCG:  Solving for k, Initial residual = 0.00281291, Final residual = 4.49084e-05, No Iterations 1
bounding k, min: 0 max: 0.70998 average: 0.0992911
ExecutionTime = 58.39 s  ClockTime = 61 s

Time = 490s

DILUPBiCG:  Solving for Ux, Initial residual = 0.000547319, Final residual = 2.51172e-05, No Iterations 1
DILUPBiCG:  Solving for Uy, Initial residual = 0.00612276, Final residual = 0.000220616, No Iterations 1
DILUPBiCG:  Solving for Uz, Initial residual = 0.00824675, Final residual = 0.000297149, No Iterations 1
GAMG:  Solving for p, Initial residual = 0.0196459, Final residual = 0.00183822, No Iterations 6
time step continuity errors : sum local = 6.52172e-05, global = -4.48651e-07, cumulative = 1.57888
DILUPBiCG:  Solving for omega, Initial residual = 9.09895e-06, Final residual = 5.80408e-07, No Iterations 1
DILUPBiCG:  Solving for k, Initial residual = 0.00281608, Final residual = 4.49257e-05, No Iterations 1
bounding k, min: 0 max: 0.707192 average: 0.0988678
ExecutionTime = 58.5 s  ClockTime = 61 s

Time = 491s

DILUPBiCG:  Solving for Ux, Initial residual = 0.000544781, Final residual = 2.50071e-05, No Iterations 1
DILUPBiCG:  Solving for Uy, Initial residual = 0.00613491, Final residual = 0.000221364, No Iterations 1
DILUPBiCG:  Solving for Uz, Initial residual = 0.00825682, Final residual = 0.000298237, No Iterations 1
GAMG:  Solving for p, Initial residual = 0.0197817, Final residual = 0.00186448, No Iterations 6
time step continuity errors : sum local = 6.60258e-05, global = -5.16917e-07, cumulative = 1.57888
DILUPBiCG:  Solving for omega, Initial residual = 9.06468e-06, Final residual = 5.7819e-07, No Iterations 1
DILUPBiCG:  Solving for k, Initial residual = 0.00281927, Final residual = 4.49433e-05, No Iterations 1
bounding k, min: 0 max: 0.704407 average: 0.0984463
ExecutionTime = 58.61 s  ClockTime = 61 s

Time = 492s

DILUPBiCG:  Solving for Ux, Initial residual = 0.000542246, Final residual = 2.4893e-05, No Iterations 1
DILUPBiCG:  Solving for Uy, Initial residual = 0.00614613, Final residual = 0.000222078, No Iterations 1
DILUPBiCG:  Solving for Uz, Initial residual = 0.00826655, Final residual = 0.000299249, No Iterations 1
GAMG:  Solving for p, Initial residual = 0.0200509, Final residual = 0.0018738, No Iterations 6
time step continuity errors : sum local = 6.62285e-05, global = -6.30985e-07, cumulative = 1.57888
DILUPBiCG:  Solving for omega, Initial residual = 9.03053e-06, Final residual = 5.75978e-07, No Iterations 1
DILUPBiCG:  Solving for k, Initial residual = 0.00282247, Final residual = 4.49611e-05, No Iterations 1
bounding k, min: 0 max: 0.701625 average: 0.0980265
ExecutionTime = 58.71 s  ClockTime = 62 s

Time = 493s

DILUPBiCG:  Solving for Ux, Initial residual = 0.000539705, Final residual = 2.4773e-05, No Iterations 1
DILUPBiCG:  Solving for Uy, Initial residual = 0.00615732, Final residual = 0.000222755, No Iterations 1
DILUPBiCG:  Solving for Uz, Initial residual = 0.00827643, Final residual = 0.00030024, No Iterations 1
GAMG:  Solving for p, Initial residual = 0.0201152, Final residual = 0.00188017, No Iterations 6
time step continuity errors : sum local = 6.63312e-05, global = -8.21648e-07, cumulative = 1.57888
DILUPBiCG:  Solving for omega, Initial residual = 8.99655e-06, Final residual = 5.73776e-07, No Iterations 1
DILUPBiCG:  Solving for k, Initial residual = 0.00282569, Final residual = 4.49793e-05, No Iterations 1
bounding k, min: 0 max: 0.698846 average: 0.0976085
ExecutionTime = 58.81 s  ClockTime = 62 s

Time = 494s

DILUPBiCG:  Solving for Ux, Initial residual = 0.000537164, Final residual = 2.46495e-05, No Iterations 1
DILUPBiCG:  Solving for Uy, Initial residual = 0.00616914, Final residual = 0.000223385, No Iterations 1
DILUPBiCG:  Solving for Uz, Initial residual = 0.00828714, Final residual = 0.000301226, No Iterations 1
GAMG:  Solving for p, Initial residual = 0.0198351, Final residual = 0.00189371, No Iterations 6
time step continuity errors : sum local = 6.66814e-05, global = -1.09886e-06, cumulative = 1.57888
DILUPBiCG:  Solving for omega, Initial residual = 8.96277e-06, Final residual = 5.71583e-07, No Iterations 1
DILUPBiCG:  Solving for k, Initial residual = 0.00282893, Final residual = 4.49982e-05, No Iterations 1
bounding k, min: 0 max: 0.696069 average: 0.0971923
ExecutionTime = 58.91 s  ClockTime = 62 s

Time = 495s

DILUPBiCG:  Solving for Ux, Initial residual = 0.000534626, Final residual = 2.45266e-05, No Iterations 1
DILUPBiCG:  Solving for Uy, Initial residual = 0.00618169, Final residual = 0.000223984, No Iterations 1
DILUPBiCG:  Solving for Uz, Initial residual = 0.00829918, Final residual = 0.00030221, No Iterations 1
GAMG:  Solving for p, Initial residual = 0.0195992, Final residual = 0.00191523, No Iterations 6
time step continuity errors : sum local = 6.73011e-05, global = -1.45248e-06, cumulative = 1.57888
DILUPBiCG:  Solving for omega, Initial residual = 8.92914e-06, Final residual = 5.69394e-07, No Iterations 1
DILUPBiCG:  Solving for k, Initial residual = 0.00283219, Final residual = 4.50174e-05, No Iterations 1
bounding k, min: 0 max: 0.693296 average: 0.0967778
ExecutionTime = 59.02 s  ClockTime = 62 s

Time = 496s

DILUPBiCG:  Solving for Ux, Initial residual = 0.000532094, Final residual = 2.44061e-05, No Iterations 1
DILUPBiCG:  Solving for Uy, Initial residual = 0.00619537, Final residual = 0.000224535, No Iterations 1
DILUPBiCG:  Solving for Uz, Initial residual = 0.00831296, Final residual = 0.000303219, No Iterations 1
GAMG:  Solving for p, Initial residual = 0.0196417, Final residual = 0.00170053, No Iterations 8
time step continuity errors : sum local = 5.96288e-05, global = -1.1549e-06, cumulative = 1.57888
DILUPBiCG:  Solving for omega, Initial residual = 8.89533e-06, Final residual = 5.67206e-07, No Iterations 1
DILUPBiCG:  Solving for k, Initial residual = 0.00283547, Final residual = 4.50372e-05, No Iterations 1
bounding k, min: 0 max: 0.690526 average: 0.0963651
ExecutionTime = 59.13 s  ClockTime = 62 s

Time = 497s

DILUPBiCG:  Solving for Ux, Initial residual = 0.000529576, Final residual = 2.43043e-05, No Iterations 1
DILUPBiCG:  Solving for Uy, Initial residual = 0.00621069, Final residual = 0.000225082, No Iterations 1
DILUPBiCG:  Solving for Uz, Initial residual = 0.00832792, Final residual = 0.000304249, No Iterations 1
GAMG:  Solving for p, Initial residual = 0.0195338, Final residual = 0.00187226, No Iterations 6
time step continuity errors : sum local = 6.55122e-05, global = 8.70363e-07, cumulative = 1.57888
DILUPBiCG:  Solving for omega, Initial residual = 8.86104e-06, Final residual = 5.65014e-07, No Iterations 1
DILUPBiCG:  Solving for k, Initial residual = 0.00283876, Final residual = 4.50573e-05, No Iterations 1
bounding k, min: 0 max: 0.687759 average: 0.0959542
ExecutionTime = 59.25 s  ClockTime = 62 s

Time = 498s

DILUPBiCG:  Solving for Ux, Initial residual = 0.000527039, Final residual = 2.42135e-05, No Iterations 1
DILUPBiCG:  Solving for Uy, Initial residual = 0.00622554, Final residual = 0.000225558, No Iterations 1
DILUPBiCG:  Solving for Uz, Initial residual = 0.00834505, Final residual = 0.000305346, No Iterations 1
GAMG:  Solving for p, Initial residual = 0.0195228, Final residual = 0.00185383, No Iterations 6
time step continuity errors : sum local = 6.47372e-05, global = 3.444e-06, cumulative = 1.57888
DILUPBiCG:  Solving for omega, Initial residual = 8.82672e-06, Final residual = 5.62802e-07, No Iterations 1
DILUPBiCG:  Solving for k, Initial residual = 0.00284207, Final residual = 4.50778e-05, No Iterations 1
bounding k, min: 0 max: 0.684994 average: 0.0955449
ExecutionTime = 59.35 s  ClockTime = 62 s

Time = 499s

DILUPBiCG:  Solving for Ux, Initial residual = 0.000524518, Final residual = 2.41117e-05, No Iterations 1
DILUPBiCG:  Solving for Uy, Initial residual = 0.00623997, Final residual = 0.000225984, No Iterations 1
DILUPBiCG:  Solving for Uz, Initial residual = 0.00836, Final residual = 0.000306347, No Iterations 1
GAMG:  Solving for p, Initial residual = 0.0194415, Final residual = 0.00187515, No Iterations 6
time step continuity errors : sum local = 6.53492e-05, global = -1.58423e-06, cumulative = 1.57888
DILUPBiCG:  Solving for omega, Initial residual = 8.79257e-06, Final residual = 5.60536e-07, No Iterations 1
DILUPBiCG:  Solving for k, Initial residual = 0.00284539, Final residual = 4.50987e-05, No Iterations 1
bounding k, min: 0 max: 0.682233 average: 0.0951375
ExecutionTime = 59.46 s  ClockTime = 62 s

Time = 500s

DILUPBiCG:  Solving for Ux, Initial residual = 0.000522001, Final residual = 2.39285e-05, No Iterations 1
DILUPBiCG:  Solving for Uy, Initial residual = 0.00625501, Final residual = 0.000226428, No Iterations 1
DILUPBiCG:  Solving for Uz, Initial residual = 0.00837433, Final residual = 0.000307335, No Iterations 1
GAMG:  Solving for p, Initial residual = 0.019326, Final residual = 0.00169452, No Iterations 8
time step continuity errors : sum local = 5.89198e-05, global = -1.12888e-06, cumulative = 1.57888
DILUPBiCG:  Solving for omega, Initial residual = 8.75945e-06, Final residual = 5.58419e-07, No Iterations 1
DILUPBiCG:  Solving for k, Initial residual = 0.00284874, Final residual = 4.51199e-05, No Iterations 1
bounding k, min: 0 max: 0.679475 average: 0.0947317
ExecutionTime = 59.61 s  ClockTime = 63 s

End

Finalising parallel run
